<?xml version="1.0" encoding="utf-8"?>
<!-- generated on 2024-07-20 19:00:09.710411 by randomTrips.py v1_19_0+0000-baa66a0f364
<configuration>
    <net-file value="my_yizhuang.net.xml"/>
    <route-file value="my_yizhuang_routes.rou.xml"/>
    <length value="True"/>
    <end value="50.0"/>
    <period value="0.1"/>
</configuration>
--><!-- generated on 2024-07-20 19:00:09 by Eclipse SUMO duarouter Version 1.19.0
<configuration xmlns:xsi="http://www.w3.org/2001/XMLSchema-instance" xsi:noNamespaceSchemaLocation="http://sumo.dlr.de/xsd/duarouterConfiguration.xsd">

    <input>
        <net-file value="my_yizhuang.net.xml"/>
        <route-files value="trips.trips.xml"/>
    </input>

    <output>
        <output-file value="my_yizhuang_routes.rou.xml"/>
        <alternatives-output value="NUL"/>
    </output>

    <time>
        <begin value="0"/>
        <end value="50.0"/>
    </time>

    <report>
        <no-warnings value="true"/>
        <ignore-errors value="true"/>
        <no-step-log value="true"/>
    </report>

</configuration>
--><routes xmlns:xsi="http://www.w3.org/2001/XMLSchema-instance"
        xsi:noNamespaceSchemaLocation="http://sumo.dlr.de/xsd/routes_file.xsd">
    <trip color="red" depart="0.00" departPos="295.03" from="EZ6" id="t_0"
         to="-E18V4N"/>
    <flow begin="0.00" color="cyan" departPos="365.87" end="3600.00" from="EZ6"
         id="f_0"
         to="EL4"
         vehsPerHour="200"/>
    <flow begin="0.00" end="3600.00" from="EAL" id="f_1" to="E69"
         vehsPerHour="100"/>
    <flow begin="0.00" color="green" end="3600.00" from="EDU" id="f_2"
         to="EYY"
         vehsPerHour="200"/>
    <vehicle depart="0.00" id="0">
        <route edges="EMG ECN ECO ELZ EM0 ES7 EYG EGZ -E4W"/>
    </vehicle>
    <vehicle depart="0.10" id="1">
        <route edges="E5 ECE ET1 ET1-AddedOffRampEdge ET3 ET4 ET5 -42500632#1 EE -E18V65 -729513782#7 -729513782#5 -E18V62 -E18V61 -E18V60 E18V1B E18V1C E18V1D E18V1E E18V1F E18V1G E18V1H E18V1I E18V1J E18V1K E18V1L E7M E7N E5E E5F E60 E61 -E18V0I -E18V0G -E18V0L"/>
    </vehicle>
    <vehicle depart="0.20" id="2">
        <route edges="ESZ ET0 EM8 EM9 EMA -E18V1V -E18V1U -E18V1T -42500632#1 EE -E18V65 -729513782#7 -729513782#5 -E18V62 -E18V61 -E18V60 E18V1B E18V1C E18V1D E18V1E E18V1F E18V1G E18V1H E18V1I E18V1J E18V1K E18V1L -E18V1P -E18V1O -E18V1N -E18V1M ERK ERL E7B EA2 EA3 EO8"/>
    </vehicle>
    <vehicle depart="0.30" id="3">
        <route edges="E18V1J -E18V1J -E18V1I -42500596 -E18V1G -E18V1F -E18V1E -E7L E18V5M E18V5X E18V5Y E18V5Z E18WN E18WO E18WP E18V8C EYM E6L E69 -EDC"/>
    </vehicle>
    <vehicle depart="0.40" id="4">
        <route edges="E9W -EMR -EMQ EHN E5N EKZ ES2 ES3 EL0 ES5 ES6 ES7 ES4 -42500632#1 EE -E18V65 -729513782#7 -729513782#5 -E18V62 -E18V61 -E18V60 E18V1B E18V1C E18V1D E18V1E E18V1F E18V1G E18V1H E18V1I E18V1J E18V1K E18V1L E7M E7N E5E -1236781136#1"/>
    </vehicle>
    <vehicle depart="0.50" id="5">
        <route edges="-364448191#3 -EZZ ER ETP ETQ E18V29 E18V29-AddedOffRampEdge E18V2B E18V2C E18V2D E18V2E E18V210 E18V211 E18V212 E18V213 E18V214 EKW EIW7 EKR EJIQ0 EDK"/>
    </vehicle>
    <vehicle depart="0.60" id="6">
        <route edges="-E3I E18V2T E18V44 E18V45 E18V4A E18V4B E18V4C EQ ER -E31 -E30 -E18WZ -E18WY E18V8C EYM E6L ERH ERI ERG EKO EKN EQJ EVU EVV -EVV"/>
    </vehicle>
    <vehicle depart="0.70" id="7">
        <route edges="EN6 E6H EBU EUC EUD EU8 EU9 EFO"/>
    </vehicle>
    <vehicle depart="0.80" id="8">
        <route edges="-E18V03 E18V03 E63 E64 E65 E66 -E5F -1236781136#1 -E7N -E7M -E18V1L -E18V1K -E18V1J E18V30 EAV EBF E18V55-AddedOnRampEdge E18V55 E18V55-AddedOffRampEdge E18V58 E18V59-AddedOnRampEdge E18V59 E18V59-AddedOffRampEdge EWJ E18V0W E18V0X E9Y E9Z E9X E18V2O E18V2P EP0 E3K EON EJD"/>
    </vehicle>
    <vehicle depart="0.90" id="9">
        <route edges="EVV E75 EF1 EF2 EF3 EGG EKH EKG EQT E69 E6A EQR EQS EQ9 EQA EQB EH5 EH6 EH00 EZV EZW EZX EZY EY7 EY8 EY9 -E18V8"/>
    </vehicle>
    <vehicle depart="1.00" id="10">
        <route edges="EVM EUQ EUJIR EUJIS EUJ3 ERN ERO ERP ERX ERY ERZ E5T E5U ERJ ERK ERL E7B EA2 -ENW -ENV EPS"/>
    </vehicle>
    <vehicle depart="1.10" id="11">
        <route edges="E3N E3H E3I E3J E3E18V8U EOS -729513782#5 -E18V62 -E18V61 -E18V60 E18V1B -EPX -EPW -EPV -EPU"/>
    </vehicle>
    <vehicle depart="1.20" id="12">
        <route edges="E18V5U E18V5L E18V5M E18V5N E18V5O -E18V1B E18V60 E18V61 E18V62 E18V63 -254757133#4 -254757133#0 -E3J -E3I E3I"/>
    </vehicle>
    <vehicle depart="1.30" id="13">
        <route edges="-238182176#5 E5 E6 E18V67 -EMB -241491909#4 -EM9 -EM8 EM4 EM5 EM6 EM7 -238938052#4"/>
    </vehicle>
    <vehicle depart="1.40" id="14">
        <route edges="EZ1 EZ3 EZ4 ETV E18V6J EUC EUD EU8 EU9 EUA EUB EQP EQQ EJU"/>
    </vehicle>
    <vehicle depart="1.50" id="15">
        <route edges="EVS -EZA -EZ9 EUN EUO EUP EUQ EUJIR EUJIS EUJ3 ERN ERO ERP ERX ERY ERZ"/>
    </vehicle>
    <vehicle depart="1.60" id="16">
        <route edges="EFD -E3Q E18V2X -EOZ -EJI EJL ENX-AddedOnRampEdge ENX ENX-AddedOffRampEdge EO0 EO1-AddedOnRampEdge EO1 EO1-AddedOffRampEdge E18V0Y E18V0Z EBK EBL EBM EWQ-AddedOnRampEdge EWQ ETG E18V36 EN7-AddedOnRampEdge EN7 EN7-AddedOffRampEdge EJJ EN1 EN2 E18V68 E18V6G E18V6H E18V6I E18V69 E18V6A E18V6B E18V6B-AddedOffRampEdge E18V6D E18V6X E18V6Y E18V6Z"/>
    </vehicle>
    <vehicle depart="1.70" id="17">
        <route edges="E6A E6L E6M ELY ECL ECM EKL EKJ EKK ELK E18V3N EDK ELX ELW EG3"/>
    </vehicle>
    <vehicle depart="1.80" id="18">
        <route edges="EY3 E18V07 E18V08 E18V09 E18V09-AddedOffRampEdge E18V0B ESH ESI EHE EHE-AddedOffRampEdge EHG EHH EHI EHN E5N EKZ ES2 ES3 EL0 EKQ"/>
    </vehicle>
    <vehicle depart="1.90" id="19">
        <route edges="EZR EZS EZT EZU ETP ETQ EJM EJN EJO EMA E18V1W ES92 EIA"/>
    </vehicle>
    <vehicle depart="2.00" id="20">
        <route edges="ER2 ER3 ER4 -E62 -E61 -1267713760#1 -E5F -1236781136#1 -E7N -E7M -E18V1L -E18V1K -E18V1J -E18V1I -42500596 -E18V1G -E18V1F -E18V1E -E7L E18V5M E18V5X E18V5Y E18V5Z E18WN E18WO E18WP E18V8C EYM E6L ERH ERI ERF -1267918584#2 -1267927773#1"/>
    </vehicle>
    <vehicle depart="2.10" id="21">
        <route edges="-E18V0O E64 E65 E66 -E5F -1236781136#1 -E7N -E7M -E18V1L -E18V1K -E18V1J -E18V1I -42500596 -E18V1G -E18V1F -E18V1E -E7L E18V5M E18V5X E18V5Y E18V5Z E18WN E18WO E18WP E18V8C EYM E6L ERH ERI ERG EKO EKN EQU EQV EQW EQX EOA EOB E18VA E18VB -1085258001#5 E18VM E18VD"/>
    </vehicle>
    <vehicle depart="2.20" id="22">
        <route edges="-EBI EBI E18V5H EU6 EU7 -E18V1P"/>
    </vehicle>
    <vehicle depart="2.30" id="23">
        <route edges="-EFP -238813256#5 EUA EUB EQP EQT E69 E6A EQR EQS EQ9 EQA EQB EH5 EH6 EH00 EZV EZW EZX EZY EY7 EY8 EK EL"/>
    </vehicle>
    <vehicle depart="2.40" id="24">
        <route edges="EMA -E18V1V -E18V1U -E18V1T -42500632#1 EE -E18V65 -729513782#7 -729513782#5 -E18V62 -E18V61 -E18V60 E18V1B E18V1C E18V1D E18V1E E18V1F E18V1G E18V1H E18V1I E18V1J E18V1K E18V1L E7M E7N E5E E5F"/>
    </vehicle>
    <vehicle depart="2.50" id="25">
        <route edges="E5X E67 EEN EEO EES EET EEU EEO0 EZ9 EZA EZB -EZB"/>
    </vehicle>
    <vehicle depart="2.60" id="26">
        <route edges="-983420976#1 EF0 EF1 EF2 EF3 EGG EKH EKG EQT E69 E6A EQR EQS EQ9 EQA EQB EH5 EH6 EH00 E18V6U E18V6M0 E18V52 E18V53 EB6 EB7 -EAV EBE -E18V1K E18V4K E18V4J"/>
    </vehicle>
    <vehicle depart="2.70" id="27">
        <route edges="EN2 E18V6J EUC EUD EU8 EU9 EUA EF EK4"/>
    </vehicle>
    <vehicle depart="2.80" id="28">
        <route edges="-ERU EZO -1236781136#1 -E5U -1267713755#1 -267610020#3 -ERY ERY"/>
    </vehicle>
    <vehicle depart="2.90" id="29">
        <route edges="-EQE EQ8 -ENF -ENE -404120553#1 E63 E64"/>
    </vehicle>
    <vehicle depart="3.00" id="30">
        <route edges="E18V83 EUE ETR6 ETU ETV E18V6J EUC EUD EU8 EU9 EUA EUB EQP EQQ EMG EKL EKJ EKK ELK E18V3N EDK ELX"/>
    </vehicle>
    <vehicle depart="3.10" id="31">
        <route edges="EGQ ECK EM0 ES7 ES4 -42500632#1 EE ES EU ET E18V46 E18V47 E18V2U E18V2V EF7 EF8 EJA EJB EOO"/>
    </vehicle>
    <vehicle depart="3.20" id="32">
        <route edges="EYU EYY EYZ E18V6G E18V6H E18V6I E18V69 E18V6A ETX"/>
    </vehicle>
    <vehicle depart="3.30" id="33">
        <route edges="-389662624#0 E18V0Q -1268303751#0 -265527873#2 -ERJ -E5U -1267713755#1 -267610020#3 -ERY -ERX -E5S EZM EAZ -E5I"/>
    </vehicle>
    <vehicle depart="3.50" id="35">
        <route edges="-EZ9 EUN EUO EUP EUQ EUJIR EUJIS EUJ3 ERN ERO ERP EYH EYI EYJ EYK E18V6U E18V6M0 E18V5C E18V4U"/>
    </vehicle>
    <vehicle depart="3.60" id="36">
        <route edges="E18V0P E18V0Q -1268303751#0 -265527873#2 E18V1M E18V1N E18V1O E18V1P -E18V1L -E18V1K -E18V1J -E18V1I -42500596 -E18V1G -E18V1F -E18V1E -E18V1D -E18V1C -E18V1B E18V60 E18V61 E18V62 E18V63 -254757133#4 E81 E82 E83 ET E18V46 E18V45 E18WF E18WG"/>
    </vehicle>
    <vehicle depart="3.70" id="37">
        <route edges="ENG EN EO EP E5V E5W E18V5G E18V5H E18V5I E18V5C E18V5J E18V5K E18V5L E18V5M E18V5X E18V5Y E18V5Z E18WN E18WO E18WP E18V8C EYM E6L ERH ERI ERG EKO EKN EQJ EVU EVV E74"/>
    </vehicle>
    <vehicle depart="3.80" id="38">
        <route edges="E18V38 E18V38-AddedOffRampEdge E18V77 E18V77-AddedOffRampEdge E18V3H E18V6O E18V6P E18V6Q E18V6R E18V6R.306 E18V6T E18V6U E18V6M0 E18V5D E18V5E E18V5F -1267713756#2 EBG"/>
    </vehicle>
    <vehicle depart="3.90" id="39">
        <route edges="-E18V7Y E18V7Y EFU EFV E8Z ES1 E8D E8E E8F E8G EYG EGZ EH0 EH2 EH3 EH4 EH5 EH6 EH00 E18V6U E18V6M0 E18V5C -E18V5C"/>
    </vehicle>
    <vehicle depart="4.00" id="40">
        <route edges="EH8 EY5 EG2 ECA ECB ECC ECD ECE ET1 ET1-AddedOffRampEdge ET3 ET4 ET5 -42500632#1 EE ES EU ET E18V46 E18V47 E18V2U E18V2V E18V2W E18V2X E18V2Y EB0 E9Z EAN -987587872#0"/>
    </vehicle>
    <vehicle depart="4.10" id="41">
        <route edges="EJE EYE EYF E18V2S E18V2T E18V44 E18V45 E18V4A E18V4B E18V4C E7Q E18V1Q E18V1Z E18V1Z-AddedOffRampEdge E18V21 E18V21-AddedOffRampEdge E18V28 E18V29 E18V29-AddedOffRampEdge E18V2B E18V2C E18V2D E18V2E E18V210"/>
    </vehicle>
    <vehicle depart="4.20" id="42">
        <route edges="E7M E7N E5E E5F E60 E61 E18V0D -E18V0D"/>
    </vehicle>
    <vehicle depart="4.30" id="43">
        <route edges="E18V8R E18V4J -E18V1J -E18V1I -42500596 -E18V1G -E18V1F -E18V1E -E18V1D -E18V1C -E18V1B E18V60 E18V61 E18V62 E18V63 E18V64 E18V65 E7Q E18V1Q E18V1T E18V1U E18V1V -241491909#4 -EM9 -EM8 EM4 EM5 EM6 EM7 -187903264#6 EMC EI4 ENB ENC EHL EHM EHC EHD EHJ EHK EDW EDX"/>
    </vehicle>
    <vehicle depart="4.40" id="44">
        <route edges="-EDA -ECZ -ECY E18V3B E18V3C E18V3D ERH ERI ERG EKO EKN EQU EQV EQW -E75"/>
    </vehicle>
    <vehicle depart="4.50" id="45">
        <route edges="-EIA -ES92 -42500632#9 -241491909#4 -EM9 -EM8 -ET0 -29129846#3 E18V3E EGM ECL ECM EKL EKJ ELC"/>
    </vehicle>
    <vehicle depart="4.60" id="46">
        <route edges="EUX -E6Z -EFP -238813256#5 EUA EUB EQP EQQ EMG EK8 EK9 ETY EFW EFX EFY -187903264#6 E7I E9H"/>
    </vehicle>
    <vehicle depart="4.70" id="47">
        <route edges="-EA2 -201526555#0 -1268303751#0 -265527873#2 -ERJ -E5U -1267713755#1 -1267713756#2 -E5V E67"/>
    </vehicle>
    <vehicle depart="4.80" id="48">
        <route edges="E18V8O EAO EAP EAQ EAR EAS -201526555#0 -1268303751#0 -265527873#2 -ERJ -E5U -1267713755#1 -267610020#3 -ERY -ERX EY7 EY8 EY9 EYA EEN EEO EES"/>
    </vehicle>
    <vehicle depart="4.90" id="49">
        <route edges="E18V6R E18V6R.306 E5I EZH"/>
    </vehicle>
    <vehicle depart="5.00" id="50">
        <route edges="-1170347801#2 -E18WF E18V4A E18V4B E18V4C EQ ER -E31 -E30 -E18WZ -E18WY E18V8C EYM E6L ERH ERI ERG"/>
    </vehicle>
    <vehicle depart="5.10" id="51">
        <route edges="EP9 E5V E5W E18V5G E18V5H E18V5I E18V5C E18V5J E18V5K E18V5L E18V5M E18V5N E18V5O -E18V1B E18V60 E18V61 E18V62 E18V63 -254757133#4 -254757133#0 -E3J E18V4 EF6"/>
    </vehicle>
    <vehicle depart="5.20" id="52">
        <route edges="-983420976#1 EF0 EF1 EF2 EF3 EGG EKH EKG EQT E6M ELY ELZ EM0"/>
    </vehicle>
    <vehicle depart="5.40" id="54">
        <route edges="EBG -1236781136#1 -E5U -1267713755#1 E18V5G E18V5H E18V5I E18V5C E18V5J E18V5K"/>
    </vehicle>
    <vehicle depart="5.50" id="55">
        <route edges="E18V0O E18V0P E18V0Q E7B -EAS -EAR -EAQ -EAP -EAO E18V8P -E18V8P"/>
    </vehicle>
    <vehicle depart="5.60" id="56">
        <route edges="EDL -EDL EFT EFU EFV E8Z ES1 E8D E8E E8F -ET8 -29130120#4"/>
    </vehicle>
    <vehicle depart="5.80" id="58">
        <route edges="E18VH E18VI E18VE EOC ELO ELF E6S ESN-AddedOnRampEdge ESN EDZ ESP ELL EHS EHT-AddedOnRampEdge EHT EHV E7J E7C ESM ELU ELV"/>
    </vehicle>
    <vehicle depart="5.90" id="59">
        <route edges="EKQ -240082981#2 ESQ ESR EL0 ES5 ES6 ES7 ES4 -42500632#1 EE -E18V65 -729513782#7 -729513782#5 -E18V62 -E18V61 -E18V60 E18V1B E18V1C E18V1D E18V1E E18V1F E18V1G E18V1H E18V1I E18V1J E18V1K E18V1L -E18V1P -E18V1O -E18V1N -E18V1M ERK ERL E7B EA2 -ENW -ENV -ENU -ENT EO4 EO5 -EPI"/>
    </vehicle>
    <vehicle depart="6.00" id="60">
        <route edges="ETN E18V2M EWK EWP EJI E3A E3P E3Q EFA"/>
    </vehicle>
    <vehicle depart="6.10" id="61">
        <route edges="EUB ER6 ERD ERE ER7 ER8 ER9 ERA ERB ERC E18V68 E18V6G E18V6H E18V6I E18V69 EUO EUP EET"/>
    </vehicle>
    <vehicle depart="6.20" id="62">
        <route edges="-EC E18V4C EQ ER EGZ EH0 EH2 E18WQ E18WU"/>
    </vehicle>
    <vehicle depart="6.30" id="63">
        <route edges="-E18WX E18WX E18WY E18WZ E30 E31 E18V4R E18V4S ES EU ET E18V46"/>
    </vehicle>
    <vehicle depart="6.40" id="64">
        <route edges="E18V0T -389662624#0 E18V0Q -1268303751#0 -265527873#2 E18V1M E18V1N E18V1O E18V1P -E18V1L -E18V1K -E18V1J -E18V1I -42500596 -E18V1G -E18V1F -E18V1E -E7L E18V5M E18V5X E18V5Y E18V5Z E18WN E18WO E18WP E18V8C EYM E6L ERH ERI ERG EKO EKN EQU EQV EQW EQX EOG EOG-AddedOffRampEdge EOI EXG"/>
    </vehicle>
    <vehicle depart="6.60" id="66">
        <route edges="E18V0R -252762949#0 -E18V14 -EA2 -201526555#0 -1268303751#0 -265527873#2 -ERJ -E5U -1267713755#1 E18V5G E18V5H E18V5I E18V5C E18V4U E18V4V E18V4W E18V4X"/>
    </vehicle>
    <vehicle depart="6.70" id="67">
        <route edges="-ECZ -ECY E18V3B E18V3C E18V3D E6M ELY ECL"/>
    </vehicle>
    <vehicle depart="6.90" id="69">
        <route edges="ETN E18V2M EWK EAW ENX-AddedOnRampEdge ENX ENX-AddedOffRampEdge EO0 EO1-AddedOnRampEdge EO1 EO1-AddedOffRampEdge E18V0Y E18V0Z EBK EJG EJH E18V4T -E18V5C E18V5D E18V5E E18V5F -1267713756#2 -E5V -EP -EO -EN -ENG"/>
    </vehicle>
    <vehicle depart="7.10" id="71">
        <route edges="-E18V7Y E18V7Y EFU EFV E8Z EL4 EL5 -42500632#13 -E18V1R -42500632#9 -E18V1V -E18V1U -E18V1T -42500632#1 EE -E18V65 -729513782#7 -729513782#5 -E18V62 -E18V61 -E18V60 E18V1B E18V1C E18V1D E18V1E E18V1F E18V1G E18V1H E18V1I E18V1J E18V1K E18V1L E7M E7N E5E E5F E60 E61 E18V0D E18V04"/>
    </vehicle>
    <vehicle depart="7.20" id="72">
        <route edges="EA1 -238304667#1 E4C EHS EHT-AddedOnRampEdge EHT EHV E7J E7C ESM ELU ELV ESQ ESR EL0 ES5 ES6 ES7 EYG EGZ EH0 EH2 EH3 EH4 EH5 EH6 EH00 EZV EZW -EZI -EZH"/>
    </vehicle>
    <vehicle depart="7.30" id="73">
        <route edges="EFN E18V4P E18WK EH4 EH5 EH6 EH00 EZV EZW EZX EZY ERX ERY ERZ"/>
    </vehicle>
    <vehicle depart="7.40" id="74">
        <route edges="-EVP EWZ EQL EQM E18W7 EFE ER9 ERA ERB ERC E18V6K E18V6K-AddedOffRampEdge E18V6M E18V6O E18V6P E18V6Q EB5 EVD EVC E18V2Z EWN E18V53 E18V54 E18V55-AddedOnRampEdge E18V55 E18V55-AddedOffRampEdge E18V58 E18V59-AddedOnRampEdge E18V59 E18V59-AddedOffRampEdge E18V3O E18V3P EWU-AddedOnRampEdge EWU E18WB"/>
    </vehicle>
    <vehicle depart="7.50" id="75">
        <route edges="E18V8M EPY EPZ EQ0 EQ1 EQ2 EAP E18V4I E18V4J -E18V1J -E18V1I -42500596 -E18V1G -E18V1F -E18V1E -E18V1D -E18V1C -E18V1B E18V60 E18V61 E18V62 E18V63 E18V64 E18V65 E7Q E18V1Q E18V1T E18V1U E18V1V -241491909#4 -EM9 -EM8 EM4 EM5 EM6 EM7 -187903264#6 EMC EI4 ENB ENC EHL EHM EMH"/>
    </vehicle>
    <vehicle depart="7.60" id="76">
        <route edges="EAI EEC"/>
    </vehicle>
    <vehicle depart="7.70" id="77">
        <route edges="-EKX -ECU -ECT -ECS E6N EGG EKH EKG EQT E69 E6A EQR EQS EQ9 EQA EQB EH5 EH6 EH00 E18V6U E18V6M0 E18V52 E18V53 EB6 EB7 -EAV EBE E18V1L -E18V1P -E18V1O -E18V1N -E18V1M ERK ERL -389662623#4"/>
    </vehicle>
    <vehicle depart="7.80" id="78">
        <route edges="E3I E18V4 EF6 EF7 EF8 EJA EJB"/>
    </vehicle>
    <vehicle depart="7.90" id="79">
        <route edges="-389662624#2 -E18V0T -E18V0S -E18V03 -E18V0E"/>
    </vehicle>
    <vehicle depart="8.00" id="80">
        <route edges="-EAS EAS -201526555#0 -1268303751#0 -265527873#2 E18V1M E18V1N E18V1O E18V1P -E18V1L -E18V1K -E18V1J -E18V1I -42500596 -E18V1G -E18V1F -E18V1E -E7L E18V5M E18V5X E18V5Y E18V5Z E18WN E18WO E18WP E18V8C EYM E6L E6M ELY ECL ECM EKL EKJ EKK ELG ELH ELI ELJ"/>
    </vehicle>
    <vehicle depart="8.10" id="81">
        <route edges="-389662624#0 E18V0Q -1268303751#0 -265527873#2 E18V1M E18V1N E18V1O E18V1P -E18V1L -E18V1K -E18V1J -E18V1I -42500596 -E18V1G -E18V1F -E18V1E -E18V1D -E18V1C -E18V1B E18V60 E18V61 E18V62 E18V63 -254757133#4 -254757133#0 E18V2N"/>
    </vehicle>
    <vehicle depart="8.20" id="82">
        <route edges="EZN EZI EYJ EU4 EU5 EU6 -EB9"/>
    </vehicle>
    <vehicle depart="8.30" id="83">
        <route edges="-E18V1R -42500632#9 -E18V1V -E18V1U -E18V1T -42500632#1 EE -E18V65 -729513782#7 -729513782#5 -E18V62 -E18V61 -E18V60 E18V1B E18V1C E18V1D E18V1E E18V1F E18V1G E18V1H E18V1I E18V1J E18V1K E18V1L E7M E7N E5E E5F E60 E61 E62 E5Y -252762950#6 ENK"/>
    </vehicle>
    <vehicle depart="8.40" id="84">
        <route edges="-EZF EVS EVT EVH EVI EVJ EAK EEJ EYT E18V6Q EB5 EVD EVC E18V2Z EWN E18V53 EB6 EB7 -EAV EBE E18V1L -E18V1P -E18V1O -E18V1N -E18V1M ERK ERL E7B EA2 EA3 EA4 -ENL"/>
    </vehicle>
    <vehicle depart="8.50" id="85">
        <route edges="E18V4D EPU EPV EPW EPX -E18V1B EFM -EFH E18V5Y E18V5Z E18WN E18WO E18WP E18V8C EYM E6L E6M ELY ECL ECM EKL EKJ EKK ELG ELH ELI ELJ EHO"/>
    </vehicle>
    <vehicle depart="8.60" id="86">
        <route edges="EC9 EMY EMZ EN0 ERD ERE ER7 ER8 ER9 ERA EUC"/>
    </vehicle>
    <vehicle depart="8.70" id="87">
        <route edges="EVS EVT EVH EVI EVJ EEB -317889652#9"/>
    </vehicle>
    <vehicle depart="8.90" id="89">
        <route edges="EA2 -EA2 -201526555#0 -1268303751#0 -265527873#2 E18V1M E18V1N E18V1O E18V1P -E18V1L -E18V1K -E18V1J -E18V1I -42500596 -E18V1G -E7O -EB4 -EB3 -EB2 EBC EBD EBM EWQ-AddedOnRampEdge EWQ ETG E18V36 EN7-AddedOnRampEdge EN7 EN7-AddedOffRampEdge EN6 E6H EBU"/>
    </vehicle>
    <vehicle depart="9.00" id="90">
        <route edges="ESF ESG ES90 -42500632#9 -E18V1V -E18V1U -E18V1T -42500632#1 EE ES EU ET E18V46 E18V47 E18V2U E18V2V E18V2W E18V2X E18V2Y EB0 E9Z EAN EAO EAP EAQ ENS ENT"/>
    </vehicle>
    <vehicle depart="9.10" id="91">
        <route edges="E18V7N -EAB E8Q E8M E8W E7K E8R E8X -241491908#5 -EGH"/>
    </vehicle>
    <vehicle depart="9.20" id="92">
        <route edges="E85 -254757133#0 -E3J E18V4 EF6 EF7 E3N"/>
    </vehicle>
    <vehicle depart="9.30" id="93">
        <route edges="EZR EH5 EH6 EH00 EZV EZW EZX EZY EY7 EY8 EY9 EYA EEN EEO EES EET EEU E18V6A E18V6B E18V6B-AddedOffRampEdge E18V6D E18V6X E18V6Y E18V6Z -E18V6V"/>
    </vehicle>
    <vehicle depart="9.40" id="94">
        <route edges="-314357546#0 EZH EZI EYJ EYK E18V6U E18V6M0 E18V52 E18V53 E18V54 E18V55-AddedOnRampEdge E18V55 E18V55-AddedOffRampEdge E18V58 E18V59-AddedOnRampEdge E18V59 E18V59-AddedOffRampEdge EWJ E18V0W E18V0X E9Y E9Z EAN EAO EAP EAQ EAR"/>
    </vehicle>
    <vehicle depart="9.50" id="95">
        <route edges="E9W -EMR -EMQ EHN E5N EKZ ES2 ES3 EL0 ES5 ES6 ES7 ES4 -42500632#1 EE -E18V65 -729513782#7 -729513782#5 -E18V62 -E18V61 -E18V60 E18V1B E18V1C E18V1D E18V1E E18V1F E18V1G E18V1H E18V1I E18V1J E18V1K E18V1L -E18V1P -E18V1O -E18V1N EM"/>
    </vehicle>
    <vehicle depart="9.70" id="97">
        <route edges="EAQ EAR EAS -201526555#0 -1268303751#0 -265527873#2 -ERJ -E5U -1267713755#1 -267610020#3 -ERY -ERX -E5S EZM EAZ EZH"/>
    </vehicle>
    <vehicle depart="9.80" id="98">
        <route edges="EG7 ES5 ES6 ES7 ES4 -42500632#1 EE ES EU -E83"/>
    </vehicle>
    <vehicle depart="9.90" id="99">
        <route edges="E18V8S E18V8O EAO EAP E18V4I E18V4J -E18V1J -E18V1I -42500596 -E18V1G -E18V1F -E18V1E -E18V1D -E18V1C -E18V1B E18V60 E18V61 E18V62 E18V63 E18V64 E18V65 E7Q E18V1Q E18V1X E18V1X-AddedOffRampEdge EDH E5 E6 E7 E8 E9 -187903283#6 -E9L EY1 EY2"/>
    </vehicle>
    <vehicle depart="10.00" id="100">
        <route edges="E18V6M0 E18V5C E18V5J E18V5K E18V5L E18V5M E18V5X E18V5Y E18V5Z E18WN E18WO E18WP E18V8C EYM E6L E6M ELY ECL ECM EKL EKJ EKK ELG ELH ELI E18V43"/>
    </vehicle>
    <vehicle depart="10.10" id="101">
        <route edges="EZ10 EYT E18V6Q EB5 EVD EVC E18V2Z EWN E18V53 EB6 EB7 -EAV EBE E18V1L -E18V1P -E18V1O -E18V1N -E18V1M ERK ERL -389662623#4 -E18V0P -ERV"/>
    </vehicle>
    <vehicle depart="10.20" id="102">
        <route edges="ECQ -E18V43 EHP EHQ EHR ELB ELC EJT ECN ECO EGN E6B E69 E6A EQR EQS EQ9 EQA EQB EH5 EH6 EH00 EZV EZW EZX EZY -E5S -338574609#3"/>
    </vehicle>
    <vehicle depart="10.30" id="103">
        <route edges="E7U ESP ELL E4E -E9N EA1 -238304667#1 EE4 -EA1"/>
    </vehicle>
    <vehicle depart="10.40" id="104">
        <route edges="E6B E6M ELY ELZ EM0 ESZ ET0 EM8 EM9 EJP EJQ E94 E8Y E9T E9Q EXZ E18V7T"/>
    </vehicle>
    <vehicle depart="10.50" id="105">
        <route edges="-E18V82 -EEX EVR EVS EVT ETU ETV E18V6J EUC EUD EU8 EU9 EUA EUB"/>
    </vehicle>
    <vehicle depart="10.60" id="106">
        <route edges="EBG -1236781136#1 -E7N -E7M -E18V1L -E18V1K -E18V1J -E18V1I -42500596 -E18V1G -E18V1F -E18V1E -E18V1D -E18V1C -E18V1B E18V60 E18V61 E18V62 E18V63 E18V64 E18V65 E7Q E18V1Q E18V1T E18V1U E18V1V E18V1W E18V1R -EKC -EKB -EKA E5R E94 E8Y E90 E9K"/>
    </vehicle>
    <vehicle depart="10.70" id="107">
        <route edges="E18V5U E18V5L E18V5M E18V5Q E18V5R E18V5S -E18V5C E18V52 E18V53 E18V54 E18V55-AddedOnRampEdge E18V55 E18V55-AddedOffRampEdge E18V58 E18V59-AddedOnRampEdge E18V59 E18V59-AddedOffRampEdge EWJ E18V0W E18V0X E9Y E9Z EAN -987587872#0 E18V8N"/>
    </vehicle>
    <vehicle depart="10.80" id="108">
        <route edges="EGO -EGO ERI ERF ER6 ERD ERE ER7 ER8 ER9"/>
    </vehicle>
    <vehicle depart="10.90" id="109">
        <route edges="-EP7 -EP6 -EP5 EP E67 EEN EEO EES EET EEU ETR3 ETR6 ETU ETV E18V6J EUC EFF EFG E18VZ E18W0"/>
    </vehicle>
    <vehicle depart="11.00" id="110">
        <route edges="E18V6M E18V6O E18V3I EEH E6J-AddedOnRampEdge E6J E18V3A E18V3B E18V3C E18V3D E6M ELY ELZ EM0 ESZ ET0 EM4 EM5 EM6 EM7 -187903264#6 E7I EL4 EIJ"/>
    </vehicle>
    <vehicle depart="11.10" id="111">
        <route edges="EFT EFU EFV E8Z ES1 E8D E8E -EM9 -EM8 -ET0 ET0"/>
    </vehicle>
    <vehicle depart="11.20" id="112">
        <route edges="-E8S E8O E18V09 E18V09-AddedOffRampEdge E18V0B ESH ESI EHE EHE-AddedOffRampEdge EHG EHH EHI EHN E5N EKZ ES2 ES3 EL0 EIW7"/>
    </vehicle>
    <vehicle depart="11.30" id="113">
        <route edges="EDT EDU -E9O E9V E9W -EMR -EMQ EHN E5N EKZ ES2 ES3 EL0 EKP ES8 EKM EMF ERF ER6 ERD ERE ER7 ER8 ER9 ERA ERB ERC E18V68 EYU1 EYU2 EYU3 EZ0"/>
    </vehicle>
    <vehicle depart="11.40" id="114">
        <route edges="-EPF ENU ENV ENW -EA2 -201526555#0 -1268303751#0 -265527873#2 E18V1M E18V1N E18V1O E18V1P -E18V1L -E18V1K -E18V1J -E18V1I -42500596 -E18V1G -E7O -EB4 -EB3 -EB2 EBC EBD EBM EWQ-AddedOnRampEdge EWQ ETG E18V36 EN7-AddedOnRampEdge EN7 EN7-AddedOffRampEdge EJJ EN1 EN2 E18V68"/>
    </vehicle>
    <vehicle depart="11.50" id="115">
        <route edges="-EBJ E18V5H -EU5"/>
    </vehicle>
    <vehicle depart="11.60" id="116">
        <route edges="EJV -EAD ELC EJT ECN ECO ELZ EM0 ES7 ES4 -42500632#1 EE ES EU ET E18V46 E18V3 E18V4 E18V5 E18V6 -EJI EJL ENX-AddedOnRampEdge ENX ENX-AddedOffRampEdge EO0 EO1-AddedOnRampEdge EO1"/>
    </vehicle>
    <vehicle depart="11.70" id="117">
        <route edges="-E18V1G -E18V1F -E18V1E -E18V1D -E18V1C -E18V1B E18V60 E18V61 E18V62 E18V63 E18V64 E18V65 E7Q E18V1Q E18V1T E18V1U E18V1V -241491909#4 -EM9 -EM8 EM4 EM5 EM6 EM7 -241491908#5"/>
    </vehicle>
    <vehicle depart="11.80" id="118">
        <route edges="E18V17 E4Y EPX E18V1C E18V1D -E7L E18V5M E18V5Q E18V5R -E18V51"/>
    </vehicle>
    <vehicle depart="11.90" id="119">
        <route edges="EJU -EK1 EJT EK8 EK9 EIW7 EKR"/>
    </vehicle>
    <vehicle depart="12.00" id="120">
        <route edges="E9K -EY0 -EXZ -240082979#1 EMS E9H EMC E68 EL1 EMP EKZ ES2 ES3 EL0 ES5 EIW0"/>
    </vehicle>
    <vehicle depart="12.10" id="121">
        <route edges="EEO0 EUN EUO EUP EUQ EUJIR EUJIS EUJ3 ERN ERO ERP ERX ERY ERZ E5T E5U ERJ ERK ERL E7B EA2 -ENW E18V4G"/>
    </vehicle>
    <vehicle depart="12.20" id="122">
        <route edges="-EVV -EVU ER5 EGG EKH EKG EQT E69 E6A EQR EQS EQ9 EQA EQB EH5 EH6 EH00 EZV EZW EZX EZY ERX ERY ERZ E5T E5U E5E E5F E60 E61 E62 -1267713763 -ER3 ER3"/>
    </vehicle>
    <vehicle depart="12.30" id="123">
        <route edges="-42500632#13 -EKC -EKB -EKA E5R E5P -238938052#4 -EFX ESS EST EKW EKP ES8 EKM EMF ERG EKO EKN EQJ EVU EVV E74"/>
    </vehicle>
    <vehicle depart="12.40" id="124">
        <route edges="EOL E18V E18W4 E18W5 E18W6 E18W7 EFE ER9 ERA ERB ERC E18V6K E18V6K-AddedOffRampEdge E18V6M E18V6O E18V6P E18V6Q EB5 EVD EVC E18V2Z EWN E18V53 EB6 EB7 -EAV EBE E18V1L E7M E7N E5E E5F EAE EAF EAG EAH E18V12 ENE E18W9"/>
    </vehicle>
    <vehicle depart="12.60" id="126">
        <route edges="-EAU -EAT EB3 E18VX E18V1H E18V1I E18V30 EAV EBF"/>
    </vehicle>
    <vehicle depart="12.70" id="127">
        <route edges="E18V8S E18V8O"/>
    </vehicle>
    <vehicle depart="12.80" id="128">
        <route edges="-EAU -EAT -EPE E18V4T E18V4U E18V4V EH00 EZV EZW EZX EZY -E5S -338574609#3 -EZJ"/>
    </vehicle>
    <vehicle depart="12.90" id="129">
        <route edges="-E18V82 EEY EUI EUJ EUN EUO EUP EUQ EUJIR EUJIS EUJ3 ERN ERO ERP ERX ERY ERZ E5T E5U ERJ ERK ERL E7B -EAS E18V4F"/>
    </vehicle>
    <vehicle depart="13.00" id="130">
        <route edges="E18V0Y E18V0Z EBK EJG EJH E18V4T -E18V5C E18V5D E18V5E E18V5F -1267713756#2 -E5V -EP -EO -EN ENH E18V0J"/>
    </vehicle>
    <vehicle depart="13.10" id="131">
        <route edges="E5X E5Z EAE EAF EAG EAH E18V12 ENE ENF -EQ8 -EQD -EQC"/>
    </vehicle>
    <vehicle depart="13.20" id="132">
        <route edges="EYE EYF E18V2S E18V2T E18V44 E18V45 E18V4A E18V4B E18V4C EQ ER -E31 -E30 -E18WZ -E18WY E18V8C EYM EQF"/>
    </vehicle>
    <vehicle depart="13.30" id="133">
        <route edges="EKV EE18W EE3 E4I EE5 -E18V43 EHP EHQ EHR ELB ELC EJT EKM EMF ERF ER6 ERD ERE ER7 ER8 ER9 ERA ERB ERC E18V68 E18V6G E18V6H E18V6I E18V69 E18V6A E18V6B E18V6B-AddedOffRampEdge E18V6D E18V6E E18V6F E18V80"/>
    </vehicle>
    <vehicle depart="13.40" id="134">
        <route edges="ENF -ENF -ENE -404120553#1 E63 E64 E65 E66 -E5F -1236781136#1 -E7N -E7M -E18V1L -E18V1K -E18V1J -E18V1I -42500596 -E18V1G -E18V1F -E18V1E -E7L E18V5M E18V5X E18V5Y E18V5Z E18WN E18WO E18WP E18V8C EYM E6L ERH ERI ERG EKO EKN EQU EQV EQW EQX EOA EOB E18VA E18VB -1085258001#5 -1085258001#3"/>
    </vehicle>
    <vehicle depart="13.50" id="135">
        <route edges="EWS EBC EBD EBM EWQ-AddedOnRampEdge EWQ ETG E18V36 EN7-AddedOnRampEdge EN7 EN7-AddedOffRampEdge EJJ EN1 EN2 E18V6J EUC EFF EFG E18VZ E18W0 E18W6"/>
    </vehicle>
    <vehicle depart="13.60" id="136">
        <route edges="ENX-AddedOnRampEdge ENX ENX-AddedOffRampEdge EO0 EO1-AddedOnRampEdge EO1 EO1-AddedOffRampEdge E18V0Y E18V0Z EWS EB2 EB3 E18VX E18V1H E18V1I E18V1J E18V4K"/>
    </vehicle>
    <vehicle depart="13.70" id="137">
        <route edges="-ENG -E18V7F -ERT -ERS -ERR ERM ERN ERO ERP EYH EYI EYJ EYK EZQ EZR EZS EZT EZU ETP ETQ EJM EJN EJO EJP EJQ E5Q EKA EKB EKC EKD EKE EKF -240486074#7"/>
    </vehicle>
    <vehicle depart="13.80" id="138">
        <route edges="-EHA E18V7W EY0 -E9K -E9J -E9I EAB E7G EI0 EI1 EI2 EI3 E7H E40 E44 ESJ ESK EG6"/>
    </vehicle>
    <vehicle depart="13.90" id="139">
        <route edges="-E18V8T -EAM E18V2O E18V2P -EOZ -EJI EJL ENX-AddedOnRampEdge ENX ENX-AddedOffRampEdge EO0 EO1-AddedOnRampEdge EO1 EO1-AddedOffRampEdge E18V0Y E18V0Z EWS EB2 EB3 EB4 E7O -E18V1F -E18V1E -E7L E18V5M E18V5X E18V5Y E18V5Z E18WN E18WO E18WP E18V8C EYM E6L ERH ERI ERG EKO -EJW EJW"/>
    </vehicle>
    <vehicle depart="14.00" id="140">
        <route edges="ERW -ERW E18V0P E18V0Q -1268303751#0 -265527873#2 E18V1M E18V1N E18V1O E18V1P -E18V1L -E18V1K -E18V1J -E18V1I -42500596 -E18V1G -E7O -EB4 -EB3 -EB2 EBC EBD EBM EWQ-AddedOnRampEdge EWQ ETG E18V36 EN7-AddedOnRampEdge EN7 EN7-AddedOffRampEdge EJJ EN1 EN2 E18V6J EUC EFF EFG E18VZ EC6 -EYR -EYQ"/>
    </vehicle>
    <vehicle depart="14.10" id="141">
        <route edges="EM5 -EM5 -EM4 EM8 EM9 EMA -E18V1V -E18V1U -E18V1T -42500632#1 EE -E18V65 -729513782#7 -729513782#5 -E18V62 -E18V61 -E18V60 E18V1B E18V1C E18V1D E18V1E E18V1F E18V1G E18V1H E18V1I E18V1J E18V4K -E18V8R"/>
    </vehicle>
    <vehicle depart="14.20" id="142">
        <route edges="ECV EOF EF2 EF3 EGG EKH EKG EQT E69 E6A EQR EQS E18WY E18WZ E30 E31 E18V4R E18V4S -E18V65 -729513782#7 -254757133#4 -254757133#0 E18V2N"/>
    </vehicle>
    <vehicle depart="14.30" id="143">
        <route edges="EYZ E18V6G E18V6H -EVT -EVS -EVR EEX -EEX"/>
    </vehicle>
    <vehicle depart="14.40" id="144">
        <route edges="EA2 -EA2 -201526555#0 -1268303751#0 -265527873#2 -ERJ -E5U -1267713755#1 -267610020#3 -ERY EI EJ"/>
    </vehicle>
    <vehicle depart="14.50" id="145">