<?xml version="1.0" encoding="UTF-8"?>

<!-- generated on 2024-04-03 22:13:30 by Eclipse SUMO netedit Version 1.19.0
<configuration xmlns:xsi="http://www.w3.org/2001/XMLSchema-instance" xsi:noNamespaceSchemaLocation="http://sumo.dlr.de/xsd/neteditConfiguration.xsd">

    <input>
        <sumocfg-file value="E:\SUMO_FILES\SimulateOneRout.sumocfg"/>
        <route-files value="E:\SUMO_FILES\SimulateOneRout.rou.xml"/>
        <sumo-net-file value="E:\SUMO_FILES\SimulateOneRout.net.xml"/>
    </input>

    <output>
        <output-file value="E:\SUMO_FILES\SimulateOneRout.net.xml"/>
    </output>

    <processing>
        <default.action-step-length value="0.1"/>
        <offset.disable-normalization value="true"/>
    </processing>

    <junctions>
        <no-turnarounds value="true"/>
    </junctions>

    <netedit>
        <new-network value="false"/>
    </netedit>

</configuration>
-->

<net version="1.16" junctionCornerDetail="5" limitTurnSpeed="5.50" xmlns:xsi="http://www.w3.org/2001/XMLSchema-instance" xsi:noNamespaceSchemaLocation="http://sumo.dlr.de/xsd/net_file.xsd">

    <location netOffset="0.00,0.00" convBoundary="-38.27,0.00,10000.00,43.50" origBoundary="10000000000.00,10000000000.00,-10000000000.00,-10000000000.00" projParameter="!"/>

    <edge id=":J0_0" function="internal">
        <lane id=":J0_0_0" index="0" speed="7.00" length="4.76" shape="0.44,4.80 -0.77,4.92 -1.88,5.28 -2.87,5.87 -3.76,6.70"/>
    </edge>
    <edge id=":J0_1" function="internal">
        <lane id=":J0_1_0" index="0" speed="10.71" length="11.78" shape="-6.17,4.59 -2.66,0.48 -0.39,-2.45 0.65,-4.21 0.44,-4.80"/>
        <lane id=":J0_1_1" index="1" speed="9.47" length="9.12" shape="-6.17,4.59 -3.71,1.88 -1.79,-0.05 -0.41,-1.21 0.44,-1.60"/>
    </edge>

    <edge id="-E0" from="J1" to="J0" priority="-1">
        <lane id="-E0_0" index="0" speed="13.89" length="9999.56" shape="10000.00,4.80 0.44,4.80"/>
        <lane id="-E0_1" index="1" speed="13.89" length="9999.56" shape="10000.00,1.60 0.44,1.60"/>
    </edge>
    <edge id="-E1" from="J2" to="J0" priority="-1">
        <lane id="-E1_0" index="0" speed="13.89" length="50.42" shape="-39.47,42.45 -6.17,4.59"/>
    </edge>
    <edge id="E0" from="J0" to="J1" priority="-1">
        <lane id="E0_0" index="0" speed="13.89" length="9999.56" shape="0.44,-4.80 10000.00,-4.80"/>
        <lane id="E0_1" index="1" speed="13.89" length="9999.56" shape="0.44,-1.60 10000.00,-1.60"/>
    </edge>
    <edge id="E1" from="J0" to="J2" priority="-1">
        <lane id="E1_0" index="0" speed="13.89" length="50.42" shape="-3.76,6.70 -37.06,44.56"/>
    </edge>

    <junction id="J0" type="priority" x="0.00" y="0.00" incLanes="-E0_0 -E0_1 -E1_0" intLanes=":J0_0_0 :J0_1_0 :J0_1_1" shape="0.44,6.40 0.44,-6.40 -1.88,-3.99 -3.59,-1.72 -5.27,0.62 -6.63,2.53 -7.37,3.53 -2.56,7.76 -1.70,7.00 -1.21,6.74 -0.70,6.55 -0.14,6.44">
        <request index="0" response="000" foes="000" cont="0"/>
        <request index="1" response="000" foes="000" cont="0"/>
        <request index="2" response="000" foes="000" cont="0"/>
    </junction>
    <junction id="J1" type="dead_end" x="10000.00" y="0.00" incLanes="E0_0 E0_1" intLanes="" shape="10000.00,0.00 10000.00,-6.40 10000.00,0.00"/>
    <junction id="J2" type="dead_end" x="-38.27" y="43.50" incLanes="E1_0" intLanes="" shape="-38.27,43.50 -35.86,45.62 -38.27,43.50"/>

    <connection from="-E0" to="E1" fromLane="0" toLane="0" via=":J0_0_0" dir="r" state="M"/>
    <connection from="-E1" to="E0" fromLane="0" toLane="0" via=":J0_1_0" dir="l" state="M"/>
    <connection from="-E1" to="E0" fromLane="0" toLane="1" via=":J0_1_1" dir="l" state="M"/>

    <connection from=":J0_0" to="E1" fromLane="0" toLane="0" dir="r" state="M"/>
    <connection from=":J0_1" to="E0" fromLane="0" toLane="0" dir="l" state="M"/>
    <connection from=":J0_1" to="E0" fromLane="1" toLane="1" dir="l" state="M"/>

</net>
