<?xml version="1.0" encoding="UTF-8"?>

<!-- generated on 2024-07-05 16:19:46 by Eclipse SUMO netedit Version 1.19.0
<configuration xmlns:xsi="http://www.w3.org/2001/XMLSchema-instance" xsi:noNamespaceSchemaLocation="http://sumo.dlr.de/xsd/neteditConfiguration.xsd">

    <input>
        <sumocfg-file value="E:\SUMO_FILES\SimulateOneRout.sumocfg"/>
        <additional-files value=""/>
        <route-files value="E:\SUMO_FILES\SimulateOneRout.rou.xml"/>
        <sumo-net-file value="E:\SUMO_FILES\SimulateOneRout.net.xml"/>
    </input>

    <output>
        <output-file value="E:\SUMO_FILES\SimulateOneRout.net.xml"/>
    </output>

    <processing>
        <geometry.min-radius.fix.railways value="false"/>
        <geometry.max-grade.fix value="false"/>
        <offset.disable-normalization value="true"/>
        <lefthand value="0"/>
    </processing>

    <junctions>
        <no-turnarounds value="true"/>
        <junctions.corner-detail value="5"/>
        <junctions.limit-turn-speed value="5.50"/>
        <rectangular-lane-cut value="0"/>
    </junctions>

    <pedestrian>
        <walkingareas value="0"/>
    </pedestrian>

</configuration>
-->

<net version="1.16" junctionCornerDetail="5" limitTurnSpeed="5.50" xmlns:xsi="http://www.w3.org/2001/XMLSchema-instance" xsi:noNamespaceSchemaLocation="http://sumo.dlr.de/xsd/net_file.xsd">

    <location netOffset="0.00,0.00" convBoundary="-38.27,-157.47,690.39,127.99" origBoundary="-10000000000.00,-10000000000.00,10000000000.00,10000000000.00" projParameter="!"/>

    <edge id=":J0_0" function="internal">
        <lane id=":J0_0_0" index="0" speed="6.89" length="5.19" shape="0.81,4.88 -0.52,4.91 -1.74,5.24 -2.84,5.86 -3.82,6.76"/>
    </edge>
    <edge id=":J0_1" function="internal">
        <lane id=":J0_1_0" index="0" speed="10.27" length="12.18" shape="-6.22,4.65 -4.87,2.86 -2.47,-0.34 -0.00,-3.37 1.54,-4.70"/>
        <lane id=":J0_1_1" index="1" speed="9.29" length="9.87" shape="-6.22,4.65 -3.67,1.90 -1.57,-0.04 0.09,-1.18 1.30,-1.51"/>
    </edge>

    <edge id="-E0" from="J1" to="J0" priority="-1" shape="-3.84,103.15 48.38,99.48 117.09,110.56 196.00,106.41 279.54,122.21 501.86,127.99 594.30,83.07 601.60,38.50 589.93,5.45 575.24,0.85 562.00,6.97 556.88,18.74 563.32,33.47 559.09,56.55 548.83,65.47 509.81,86.69 442.46,96.85 351.42,97.76 336.22,89.21 337.30,71.38 349.31,61.18 369.53,58.07 398.21,41.22 454.22,32.90 472.00,27.05 482.63,19.83 485.25,0.90 475.81,-8.33 459.46,-9.28 434.72,6.09 412.59,16.65 376.36,28.09 342.34,41.10 316.11,59.96 306.84,83.41 296.67,93.89 282.45,98.95 270.62,99.12 250.02,89.83 243.36,75.36 248.77,50.90 268.17,39.53 310.86,25.19 368.37,8.35 425.72,-16.95 463.98,-38.81 490.11,-39.41 533.97,-28.22 590.63,-28.23 648.90,-38.24 685.82,-74.32 690.39,-112.40 672.68,-128.84 657.15,-143.01 643.81,-146.22 631.03,-138.44 622.72,-127.63 625.72,-111.69 644.76,-98.79 649.15,-81.10 647.49,-68.96 629.75,-55.16 593.75,-48.61 538.53,-48.21 477.56,-60.83 408.12,-45.06 350.77,-16.08 291.97,-3.71 249.72,18.96 207.87,39.90 194.03,51.90 188.14,68.50 179.90,74.94 164.68,70.93 153.69,53.64 142.86,39.85 144.14,26.95 160.20,10.08 181.13,-5.69 213.13,-12.15 232.88,-26.78 279.95,-43.93 314.85,-66.47 441.97,-102.59 454.30,-121.86 451.59,-144.84 421.11,-157.47 382.57,-153.34 345.94,-113.22 302.49,-82.16 236.22,-52.19 173.54,-52.89 152.95,-42.31 140.54,-32.69 112.75,-14.62 78.26,-4.21 62.13,-2.48 16.47,1.25 0.00,0.00">
        <lane id="-E0_0" index="0" speed="13.89" length="3637.98" shape="-4.18,98.36 48.60,94.65 117.35,105.74 196.32,101.59 280.05,117.42 500.81,123.16 589.97,79.84 596.66,38.94 586.20,9.31 575.57,5.98 565.67,10.56 562.12,18.74 568.31,32.89 563.51,59.07 551.58,69.44 511.36,91.31 442.84,101.65 350.19,102.57 331.25,91.92 332.63,69.05 347.24,56.64 367.89,53.47 396.58,36.61 453.11,28.21 469.86,22.70 478.17,17.06 480.16,2.64 473.74,-3.64 460.70,-4.40 437.03,10.31 414.35,21.13 377.94,32.62 344.64,45.36 320.06,63.03 310.95,86.07 299.33,98.04 283.31,103.74 269.62,103.93 246.41,93.47 238.32,75.90 244.54,47.82 266.17,35.14 309.42,20.61 366.72,3.83 423.55,-21.24 462.65,-43.58 490.66,-44.22 534.57,-33.02 590.22,-33.03 646.61,-42.72 681.26,-76.57 685.33,-110.55 669.43,-125.31 654.83,-138.63 644.61,-141.09 634.29,-134.81 627.83,-126.41 630.07,-114.54 648.98,-101.73 654.03,-81.36 651.98,-66.37 631.77,-50.65 594.20,-43.81 538.06,-43.41 477.61,-55.92 409.76,-40.51 352.37,-11.51 293.63,0.85 251.93,23.22 210.56,43.92 198.13,54.70 192.20,71.42 180.98,80.19 161.64,75.09 149.77,56.42 137.89,41.30 139.53,24.83 157.00,6.48 179.11,-10.18 211.13,-16.64 230.58,-31.05 277.80,-48.26 312.85,-70.89 438.91,-106.71 449.33,-123.00 447.15,-141.48 420.40,-152.57 384.89,-148.76 349.14,-109.61 304.90,-77.98 237.23,-47.38 174.68,-48.08 155.54,-38.24 143.32,-28.77 114.79,-10.22 79.22,0.51 62.58,2.30 16.48,6.06 0.81,4.88"/>
        <lane id="-E0_1" index="1" speed="13.89" length="3637.98" shape="-3.95,101.55 48.45,97.87 117.18,108.95 196.11,104.80 279.71,120.61 501.51,126.38 592.86,81.99 599.95,38.65 588.69,6.74 575.35,2.56 563.22,8.17 558.63,18.74 564.98,33.28 560.56,57.39 549.75,66.79 510.33,88.23 442.59,98.45 351.01,99.36 334.56,90.11 335.74,70.60 348.62,59.67 368.98,56.54 397.67,39.68 453.85,31.34 471.29,25.60 481.14,18.91 483.55,1.48 475.12,-6.77 459.87,-7.65 435.49,7.50 413.18,18.14 376.89,29.60 343.11,42.52 317.43,60.98 308.21,84.30 297.56,95.27 282.74,100.55 270.29,100.72 248.82,91.04 241.68,75.54 247.36,49.87 267.50,38.07 310.38,23.66 367.82,6.84 425.00,-18.38 463.54,-40.40 490.29,-41.01 534.17,-29.82 590.49,-29.83 648.14,-39.73 684.30,-75.07 688.70,-111.78 671.60,-127.66 656.38,-141.55 644.08,-144.51 632.12,-137.23 624.42,-127.22 627.17,-112.64 646.17,-99.77 650.78,-81.19 648.99,-68.10 630.42,-53.66 593.90,-47.01 538.37,-46.61 477.58,-59.19 408.67,-43.54 351.30,-14.56 292.52,-2.19 250.46,20.38 208.77,41.24 195.40,52.83 189.49,69.47 180.26,76.69 163.67,72.32 152.38,54.57 141.20,40.33 142.60,26.24 159.13,8.88 180.46,-7.19 212.46,-13.65 232.11,-28.20 279.23,-45.37 314.18,-67.94 440.95,-103.96 452.64,-122.24 450.11,-143.72 420.87,-155.84 383.34,-151.81 347.01,-112.02 303.29,-80.77 236.56,-50.59 173.92,-51.29 153.81,-40.95 141.47,-31.38 113.43,-13.15 78.58,-2.64 62.28,-0.89 16.47,2.85 1.05,1.68"/>
    </edge>
    <edge id="-E1" from="J2" to="J0" priority="-1">
        <lane id="-E1_0" index="0" speed="13.89" length="50.34" shape="-39.47,42.44 -6.22,4.65"/>
    </edge>
    <edge id="E0" from="J0" to="J1" priority="-1" shape="0.00,0.00 16.47,1.25 62.13,-2.48 78.26,-4.21 112.75,-14.62 140.54,-32.69 152.95,-42.31 173.54,-52.89 236.22,-52.19 302.49,-82.16 345.94,-113.22 382.57,-153.34 421.11,-157.47 451.59,-144.84 454.30,-121.86 441.97,-102.59 314.85,-66.47 279.95,-43.93 232.88,-26.78 213.13,-12.15 181.13,-5.69 160.20,10.08 144.14,26.95 142.86,39.85 153.69,53.64 164.68,70.93 179.90,74.94 188.14,68.50 194.03,51.90 207.87,39.90 249.72,18.96 291.97,-3.71 350.77,-16.08 408.12,-45.06 477.56,-60.83 538.53,-48.21 593.75,-48.61 629.75,-55.16 647.49,-68.96 649.15,-81.10 644.76,-98.79 625.72,-111.69 622.72,-127.63 631.03,-138.44 643.81,-146.22 657.15,-143.01 672.68,-128.84 690.39,-112.40 685.82,-74.32 648.90,-38.24 590.63,-28.23 533.97,-28.22 490.11,-39.41 463.98,-38.81 425.72,-16.95 368.37,8.35 310.86,25.19 268.17,39.53 248.77,50.90 243.36,75.36 250.02,89.83 270.62,99.12 282.45,98.95 296.67,93.89 306.84,83.41 316.11,59.96 342.34,41.10 376.36,28.09 412.59,16.65 434.72,6.09 459.46,-9.28 475.81,-8.33 485.25,0.90 482.63,19.83 472.00,27.05 454.22,32.90 398.21,41.22 369.53,58.07 349.31,61.18 337.30,71.38 336.22,89.21 351.42,97.76 442.46,96.85 509.81,86.69 548.83,65.47 559.09,56.55 563.32,33.47 556.88,18.74 562.00,6.97 575.24,0.85 589.93,5.45 601.60,38.50 594.30,83.07 501.86,127.99 279.54,122.21 196.00,106.41 117.09,110.56 48.38,99.48 -3.84,103.15">
        <lane id="E0_0" index="0" speed="13.89" length="3659.23" shape="1.54,-4.70 16.46,-3.56 61.68,-7.26 77.30,-8.93 110.71,-19.02 137.76,-36.61 150.36,-46.38 172.40,-57.70 235.21,-57.00 300.08,-86.34 342.74,-116.83 380.25,-157.92 421.82,-162.37 456.03,-148.20 459.27,-120.72 445.03,-98.47 316.85,-62.05 282.10,-39.60 235.18,-22.51 215.13,-7.66 183.15,-1.20 163.40,13.68 148.75,29.07 147.83,38.40 157.61,50.86 167.72,66.77 178.82,69.69 184.08,65.58 189.93,49.10 205.18,35.88 247.51,14.70 290.31,-8.27 349.17,-20.65 406.48,-49.61 477.51,-65.74 539.00,-53.01 593.30,-53.41 627.73,-59.67 643.00,-71.55 644.27,-80.84 640.54,-95.85 621.37,-108.84 617.61,-128.85 627.77,-142.07 643.01,-151.35 659.47,-147.39 675.93,-132.37 695.45,-114.25 690.38,-72.07 651.19,-33.76 591.04,-23.43 533.37,-23.42 489.56,-34.60 465.31,-34.04 427.89,-12.66 370.02,12.87 312.30,29.77 270.17,43.92 253.00,53.98 248.40,74.82 253.63,86.19 271.62,94.31 281.59,94.16 294.01,89.74 302.73,80.75 312.16,56.89 340.04,36.84 374.78,23.56 410.83,12.17 432.41,1.87 458.22,-14.16 477.88,-13.02 490.34,-0.84 487.09,22.60 474.14,31.40 455.33,37.59 399.84,45.83 371.17,62.67 351.38,65.72 341.97,73.71 341.19,86.50 352.65,92.95 442.08,92.05 508.26,82.07 546.08,61.50 554.67,54.03 558.33,34.05 551.64,18.74 558.33,3.38 574.91,-4.28 593.66,1.59 606.54,38.06 598.63,86.30 502.91,132.82 279.03,127.00 195.68,111.23 116.83,115.38 48.16,104.31 -3.50,107.94"/>
        <lane id="E0_1" index="1" speed="13.89" length="3659.23" shape="1.30,-1.51 16.47,-0.35 61.98,-4.07 77.94,-5.78 112.07,-16.09 139.61,-34.00 152.09,-43.67 173.16,-54.49 235.88,-53.79 301.69,-83.55 344.87,-114.42 381.80,-154.87 421.35,-159.10 453.07,-145.96 455.96,-121.48 442.99,-101.22 315.52,-65.00 280.67,-42.49 233.65,-25.36 213.80,-10.65 181.80,-4.19 161.27,11.28 145.68,27.66 144.52,39.37 155.00,52.71 165.69,69.54 179.54,73.19 186.79,67.53 192.66,50.97 206.97,38.56 248.98,17.54 291.42,-5.23 350.24,-17.60 407.57,-46.58 477.54,-62.47 538.69,-49.81 593.60,-50.21 629.08,-56.66 645.99,-69.82 647.52,-81.01 643.35,-97.81 624.27,-110.74 621.02,-128.04 629.94,-139.65 643.54,-147.93 657.92,-144.47 673.76,-130.02 692.08,-113.02 687.34,-73.57 649.66,-36.75 590.77,-26.63 533.77,-26.62 489.93,-37.81 464.42,-37.22 426.44,-15.52 368.92,9.86 311.34,26.72 268.84,40.99 250.18,51.93 245.04,75.18 251.22,88.62 270.95,97.52 282.16,97.35 295.78,92.51 305.47,82.52 314.79,58.94 341.57,39.68 375.83,26.58 412.00,15.16 433.95,4.68 459.05,-10.91 476.50,-9.89 486.95,0.32 484.12,20.75 472.71,28.50 454.59,34.46 398.75,42.76 370.08,59.60 350.00,62.69 338.86,72.16 337.88,88.31 351.83,96.16 442.33,95.25 509.29,85.15 547.91,64.15 557.62,55.71 561.66,33.66 555.13,18.74 560.78,5.77 575.13,-0.86 591.17,4.16 603.25,38.35 595.74,84.15 502.21,129.60 279.37,123.81 195.89,108.02 117.00,112.17 48.31,101.09 -3.73,104.75"/>
    </edge>
    <edge id="E1" from="J0" to="J2" priority="-1">
        <lane id="E1_0" index="0" speed="13.89" length="50.34" shape="-3.82,6.76 -37.07,44.56"/>
    </edge>

    <junction id="J0" type="priority" x="0.00" y="0.00" incLanes="-E0_0 -E0_1 -E1_0" intLanes=":J0_0_0 :J0_1_0 :J0_1_1" shape="0.69,6.47 1.66,-6.29 -0.99,-3.93 -3.01,-1.66 -4.99,0.68 -6.59,2.59 -7.42,3.59 -2.62,7.82 -1.66,7.00 -1.13,6.73 -0.56,6.55 0.05,6.47">
        <request index="0" response="000" foes="000" cont="0"/>
        <request index="1" response="000" foes="000" cont="0"/>
        <request index="2" response="000" foes="000" cont="0"/>
    </junction>
    <junction id="J1" type="dead_end" x="-3.84" y="103.15" incLanes="E0_0 E0_1" intLanes="" shape="-3.84,103.15 -3.39,109.53 -3.84,103.15"/>
    <junction id="J2" type="dead_end" x="-38.27" y="43.50" incLanes="E1_0" intLanes="" shape="-38.27,43.50 -35.87,45.61 -38.27,43.50"/>

    <connection from="-E0" to="E1" fromLane="0" toLane="0" via=":J0_0_0" dir="r" state="M"/>
    <connection from="-E1" to="E0" fromLane="0" toLane="0" via=":J0_1_0" dir="l" state="M"/>
    <connection from="-E1" to="E0" fromLane="0" toLane="1" via=":J0_1_1" dir="l" state="M"/>

    <connection from=":J0_0" to="E1" fromLane="0" toLane="0" dir="r" state="M"/>
    <connection from=":J0_1" to="E0" fromLane="0" toLane="0" dir="l" state="M"/>
    <connection from=":J0_1" to="E0" fromLane="1" toLane="1" dir="l" state="M"/>

</net>
