<?xml version="1.0" encoding="UTF-8"?>

<!-- generated on 2024-07-20 19:00:09.710411 by randomTrips.py v1_19_0+0000-baa66a0f364
<configuration>
    <net-file value="my_yizhuang.net.xml"/>
    <route-file value="my_yizhuang_routes.rou.xml"/>
    <length value="True"/>
    <end value="50.0"/>
    <period value="0.1"/>
</configuration>
-->

<!-- generated on 2024-07-20 19:00:09 by Eclipse SUMO duarouter Version 1.19.0
<configuration xmlns:xsi="http://www.w3.org/2001/XMLSchema-instance" xsi:noNamespaceSchemaLocation="http://sumo.dlr.de/xsd/duarouterConfiguration.xsd">

    <input>
        <net-file value="my_yizhuang.net.xml"/>
        <route-files value="trips.trips.xml"/>
    </input>

    <output>
        <output-file value="my_yizhuang_routes.rou.xml"/>
        <alternatives-output value="NUL"/>
    </output>

    <time>
        <begin value="0"/>
        <end value="50.0"/>
    </time>

    <report>
        <no-warnings value="true"/>
        <ignore-errors value="true"/>
        <no-step-log value="true"/>
    </report>

</configuration>
-->

<routes xmlns:xsi="http://www.w3.org/2001/XMLSchema-instance" xsi:noNamespaceSchemaLocation="http://sumo.dlr.de/xsd/routes_file.xsd">
    <trip id="t_0" depart="0.00" departPos="295.03" color="red" from="338573506#8" to="-721796151#2"/>
    <flow id="f_0" begin="0.00" departPos="365.87" color="cyan" from="338573506#8" to="240638687#0" end="3600.00" vehsPerHour="200"/>
    <flow id="f_1" begin="0.00" from="210697315#6" to="1267851956#1" end="3600.00" vehsPerHour="100"/>
    <flow id="f_2" begin="0.00" color="green" from="238273920#6" to="338573505#3" end="3600.00" vehsPerHour="200"/>
    <vehicle id="0" depart="0.00">
        <route edges="241509557#0 234405386#0 234405386#2 241491906#2 241491906#4 27349424#7 324914964#0 240016468#0 -1217974753#0"/>
    </vehicle>
    <vehicle id="1" depart="0.10">
        <route edges="1004615653#1 23285396#6 29129941#1 29129941#1-AddedOffRampEdge 29129941#3 29129941#4 29129941#5 -42500632#1 1004618697#0 -729513782#8 -729513782#7 -729513782#5 -729513782#3 -729513782#1 -729513782#0 42500589#0 42500589#3 42500589#4 42500589#5 42500589#6 42500589#7 42500589#8 42500620#0 42500620#1 42500620#2 42500620#3 1268351277#0 1268351277#1 1236781136#0 1236781136#2 1267713760#0 1267713760#2 -386429072#1 -386429066 -386429092#0"/>
    </vehicle>
    <vehicle id="2" depart="0.20">
        <route edges="29129846#1 29129846#4 241491909#0 241491909#1 241491909#3 -42500632#6 -42500632#5 -42500632#4 -42500632#1 1004618697#0 -729513782#8 -729513782#7 -729513782#5 -729513782#3 -729513782#1 -729513782#0 42500589#0 42500589#3 42500589#4 42500589#5 42500589#6 42500589#7 42500589#8 42500620#0 42500620#1 42500620#2 42500620#3 -42500624#3 -42500624#2 -42500624#1 -42500624#0 265527873#1 265527873#3 1268303751#1 201526555#2 201526555#4 253786006#1"/>
    </vehicle>
    <vehicle id="3" depart="0.30">
        <route edges="42500620#1 -42500620#1 -42500620#0 -42500596 -42500589#7 -42500589#6 -42500589#5 -1268351276 729513777#4 729513781#1 729513781#2 729513781#3 117083234#1 117083234#2 117083234#3 985853783 326316940#3 1267854024#0 1267851956#1 -237178907#2"/>
    </vehicle>
    <vehicle id="4" depart="0.40">
        <route edges="187903295#1 -241793322#1 -241793322#0 240016580 1267713743 240635780 27349407#0 27349407#2 240635781#0 27349424#3 27349424#5 27349424#7 27349424#10 -42500632#1 1004618697#0 -729513782#8 -729513782#7 -729513782#5 -729513782#3 -729513782#1 -729513782#0 42500589#0 42500589#3 42500589#4 42500589#5 42500589#6 42500589#7 42500589#8 42500620#0 42500620#1 42500620#2 42500620#3 1268351277#0 1268351277#1 1236781136#0 -1236781136#1"/>
    </vehicle>
    <vehicle id="5" depart="0.50">
        <route edges="-364448191#3 -364448191#1 1041174584#2 30047653#0 30047653#1 42500668#4 42500668#4-AddedOffRampEdge 42500668#6 42500668#7-AddedOnRampEdge 42500668#8 42500668#9-AddedOnRampEdge 42500668#10 42500668#11 42500668#12 42500668#13 42500668#14 240487752#0 240224339#27 240487751#2 240224339#30 238198693#2"/>
    </vehicle>
    <vehicle id="6" depart="0.60">
        <route edges="-117083728#7 47573981#6 58688528#1 58688528#2 708387269#0 708387269#1 708387269#2 1041174584#1 1041174584#2 -117083239#6 -117083239#5 -117083239#4 -117083239#2 985853783 326316940#3 1267854024#0 258296028#1 258296028#2 258296027#0 240487749 240487748#0 258285695#1 317913857#0 317913857#1 -317913857#1"/>
    </vehicle>
    <vehicle id="7" depart="0.70">
        <route edges="242945743 1267854022#0 229521327#9 317889646#4 317889646#9 317889646#13 317889646#17 238813256#4"/>
    </vehicle>
    <vehicle id="8" depart="0.80">
        <route edges="-364448192#2 364448192#2 1267836813#0 1267836813#1 1267836813#2 1267836813#3 -1236781136#2 -1236781136#1 -1268351277#1 -1268351277#0 -42500620#3 -42500620#2 -42500620#1 47574011 210697370 210697644 729513769#3-AddedOnRampEdge 729513769#3 729513769#3-AddedOffRampEdge 729513769#4 729513769#5-AddedOnRampEdge 729513769#5 729513769#5-AddedOffRampEdge 317916291#1 391813791-AddedOnRampEdge 391813793 201526544#0 201526544#1 201526542 47573981#0 47573981#1 256265168#4 117083729#0 254651700#1 240224341#0"/>
    </vehicle>
    <vehicle id="9" depart="0.90">
        <route edges="317913857#1 1267932745#0 238689595#4 238689595#5 238689595#6 239586546#0 240486076#0 240486075#0 258285707#0 1267851956#1 1267851956#3 258285706#0 258285706#2 256266146#0 256266146#1 256266146#2 240016468#8 240016468#9 240016468#10 361964650#0 361964650#1 361964650#2 361964650#3 324914960#0 324914960#1 324914960#2 -1058543678"/>
    </vehicle>
    <vehicle id="10" depart="1.00">
        <route edges="317913845#6 317889653#9 317889653#11 317889653#12 317889653#13 267610004#2 267610004#3 267610004#4 267610020#0 267610020#1 267610020#2 1267713755#0 1267713755#2 265527873#0 265527873#1 265527873#3 1268303751#1 201526555#2 -252847529#5 -252847529#4 256265219#0"/>
    </vehicle>
    <vehicle id="11" depart="1.10">
        <route edges="117083729#5 117083728#5 117083728#7 117083728#9 117083728#10 254757133#1 -729513782#5 -729513782#3 -729513782#1 -729513782#0 42500589#0 -256265225#3 -256265225#2 -256265225#1 -256265225#0"/>
    </vehicle>
    <vehicle id="12" depart="1.20">
        <route edges="729513779#1 729513777#3 729513777#4 729513777#6 729513777#7 -42500589#0 729513782#0 729513782#1 729513782#3 729513782#4 -254757133#4 -254757133#0 -117083728#9 -117083728#7 117083728#7"/>
    </vehicle>
    <vehicle id="13" depart="1.30">
        <route edges="-238182176#5 1004615653#1 1004615653#2 782089852#3 -241491909#5 -241491909#4 -241491909#1 -241491909#0 241491908#0 241491908#1 241491908#2 241491908#3 -238938052#4"/>
    </vehicle>
    <vehicle id="14" depart="1.40">
        <route edges="338573506#1 338573506#2 338573506#3 30048339#24 858280663#1 317889646#4 317889646#9 317889646#13 317889646#17 317889646#20 317889646#24 258285697#0 258285698#1 240486067#0"/>
    </vehicle>
    <vehicle id="15" depart="1.50">
        <route edges="317913855#1 -338573511#1 -338573511#0 317889653#2 317889653#6 317889653#7 317889653#9 317889653#11 317889653#12 317889653#13 267610004#2 267610004#3 267610004#4 267610020#0 267610020#1 267610020#2"/>
    </vehicle>
    <vehicle id="16" depart="1.60">
        <route edges="238692794#2 -117083731#3 47573985#5 -256265168#2 -240227446 240227452 252847537#0-AddedOnRampEdge 252847537#0 252847537#0-AddedOffRampEdge 252847537#1 252847537#2-AddedOnRampEdge 252847537#2 252847537#2-AddedOffRampEdge 391813830#0 391813830#1 210697668#0 210697668#1 210697668#2 317916338-AddedOnRampEdge 317916338 29131805#1-AddedOnRampEdge 47574189 242945770-AddedOnRampEdge 242945770 242945770-AddedOffRampEdge 240227448 242945738#0-AddedOnRampEdge 242945738#1 858280661#0 858280661#5 858280661#7-AddedOnRampEdge 858280661#9 858280661#12 858280661#16 858280661#20 858280661#20-AddedOffRampEdge 858280661#22 858280666#3 858280666#5 858280666#6"/>
    </vehicle>
    <vehicle id="17" depart="1.70">
        <route edges="1267851956#3 1267854024#0 1267854025 241491906#0 234405385#1 234405385#3 240487743#0 240487742#0 240487742#2 240970120#0 47579848 238198693#2 241441757#0 241441756 239074902#0"/>
    </vehicle>
    <vehicle id="18" depart="1.80">
        <route edges="320763325#5 374381441#3 374381441#5 374381441#8 374381441#8-AddedOffRampEdge 374381441#9 27527355#0 27527355#1 240016568#0 240016568#0-AddedOffRampEdge 240016568#1 240016571#1 240016571#2 240016580 1267713743 240635780 27349407#0 27349407#2 240635781#0 240487751#0"/>
    </vehicle>
    <vehicle id="19" depart="1.90">
        <route edges="361964647#1 361964647#3 361964647#5 361964647#7 30047653#0 30047653#1 240227472#1 240227472#3 240227472#4 241491909#3 42500632#7 27349550#12 240224323"/>
    </vehicle>
    <vehicle id="20" depart="2.00">
        <route edges="258296015#1 258296015#2 258296015#3 -1267713760#3 -1267713760#2 -1267713760#1 -1236781136#2 -1236781136#1 -1268351277#1 -1268351277#0 -42500620#3 -42500620#2 -42500620#1 -42500620#0 -42500596 -42500589#7 -42500589#6 -42500589#5 -1268351276 729513777#4 729513781#1 729513781#2 729513781#3 117083234#1 117083234#2 117083234#3 985853783 326316940#3 1267854024#0 258296028#1 258296028#2 258296020#1 -1267918584#2 -1267927773#1"/>
    </vehicle>
    <vehicle id="21" depart="2.10">
        <route edges="-389662623#1 1267836813#1 1267836813#2 1267836813#3 -1236781136#2 -1236781136#1 -1268351277#1 -1268351277#0 -42500620#3 -42500620#2 -42500620#1 -42500620#0 -42500596 -42500589#7 -42500589#6 -42500589#5 -1268351276 729513777#4 729513781#1 729513781#2 729513781#3 117083234#1 117083234#2 117083234#3 985853783 326316940#3 1267854024#0 258296028#1 258296028#2 258296027#0 240487749 240487748#0 258285709#0 258285709#2 258285709#3 258285709#4 254093676#0 254093676#2 1085257999#0 1085257999#2 -1085258001#5 1085258003#0 1085258000#0"/>
    </vehicle>
    <vehicle id="22" depart="2.20">
        <route edges="-210697662#1 210697662#1 729513774#1 314357546#6 314357546#7 -42500624#3"/>
    </vehicle>
    <vehicle id="23" depart="2.30">
        <route edges="-238813256#6 -238813256#5 317889646#20 317889646#24 258285697#0 258285707#0 1267851956#1 1267851956#3 258285706#0 258285706#2 256266146#0 256266146#1 256266146#2 240016468#8 240016468#9 240016468#10 361964650#0 361964650#1 361964650#2 361964650#3 324914960#0 324914960#1 1033465517#1 1033465517#2"/>
    </vehicle>
    <vehicle id="24" depart="2.40">
        <route edges="241491909#3 -42500632#6 -42500632#5 -42500632#4 -42500632#1 1004618697#0 -729513782#8 -729513782#7 -729513782#5 -729513782#3 -729513782#1 -729513782#0 42500589#0 42500589#3 42500589#4 42500589#5 42500589#6 42500589#7 42500589#8 42500620#0 42500620#1 42500620#2 42500620#3 1268351277#0 1268351277#1 1236781136#0 1236781136#2"/>
    </vehicle>
    <vehicle id="25" depart="2.50">
        <route edges="1267713757#1 1267836815#0 238430061#0 238430061#1 238430061#3 238430061#5 238430061#6 238430061#10 338573511#0 338573511#1 338573511#2 -338573511#2"/>
    </vehicle>
    <vehicle id="26" depart="2.60">
        <route edges="-983420976#1 238689595#3 238689595#4 238689595#5 238689595#6 239586546#0 240486076#0 240486075#0 258285707#0 1267851956#1 1267851956#3 258285706#0 258285706#2 256266146#0 256266146#1 256266146#2 240016468#8 240016468#9 240016468#10 858280664#9 858280664#10 729513769#0 729513769#1 210697600#0 210697600#1 -210697370 210697624 -42500620#2 708388764 708388763#3"/>
    </vehicle>
    <vehicle id="27" depart="2.70">
        <route edges="242945738#1 858280663#1 317889646#4 317889646#9 317889646#13 317889646#17 317889646#20 101939311#4 240486072#2"/>
    </vehicle>
    <vehicle id="28" depart="2.80">
        <route edges="-267610008#0 358335599#0 -1236781136#1 -1267713755#2 -1267713755#1 -267610020#3 -267610020#1 267610020#1"/>
    </vehicle>
    <vehicle id="29" depart="2.90">
        <route edges="-256267043#2 256266144 -252762949#3 -252762949#2 -404120553#1 1267836813#0 1267836813#1"/>
    </vehicle>
    <vehicle id="30" depart="3.00">
        <route edges="891401055#1 317889652#1 30048339#16 30048339#20 30048339#24 858280663#1 317889646#4 317889646#9 317889646#13 317889646#17 317889646#20 317889646#24 258285697#0 258285698#1 241509557#0 240487743#0 240487742#0 240487742#2 240970120#0 47579848 238198693#2 241441757#0"/>
    </vehicle>
    <vehicle id="31" depart="3.10">
        <route edges="240010954#3 234405382#3 241491906#4 27349424#7 27349424#10 -42500632#1 1004618697#0 1041174585#0 1041174585#9 1041174585#10 58688600#0 58688600#4 47573985#1 47573985#2 238692792#3 238692792#6 240224340#2 240224340#4 254651701#1"/>
    </vehicle>
    <vehicle id="32" depart="3.20">
        <route edges="338573505#1 338573505#3 338573505#7 858280661#5 858280661#7-AddedOnRampEdge 858280661#9 858280661#12 858280661#16 30048339#9"/>
    </vehicle>
    <vehicle id="33" depart="3.30">
        <route edges="-389662624#0 389662623#3 -1268303751#0 -265527873#2 -265527873#0 -1267713755#2 -1267713755#1 -267610020#3 -267610020#1 -267610020#0 -1267713753 338574609#4 210697432#2 -1239551499"/>
    </vehicle>
    <vehicle id="35" depart="3.50">
        <route edges="-338573511#0 317889653#2 317889653#6 317889653#7 317889653#9 317889653#11 317889653#12 317889653#13 267610004#2 267610004#3 267610004#4 324914966#0 324914966#1 324914966#2 324914966#3 858280664#9 858280664#10 729513770 729513766#0"/>
    </vehicle>
    <vehicle id="36" depart="3.60">
        <route edges="389662623#2 389662623#3 -1268303751#0 -265527873#2 42500624#0 42500624#1 42500624#2 42500624#3 -42500620#3 -42500620#2 -42500620#1 -42500620#0 -42500596 -42500589#7 -42500589#6 -42500589#5 -42500589#4 -42500589#3 -42500589#0 729513782#0 729513782#1 729513782#3 729513782#4 -254757133#4 144356211#12 144356211#14 144356211#15 1041174585#10 58688600#0 58688528#2 1170347801#0 1170347801#1"/>
    </vehicle>
    <vehicle id="37" depart="3.70">
        <route edges="252762950#0 1035809878#0 1035809878#1 1035809878#2 1267713756#0 1267713756#1 729513774#0 729513774#1 729513774#3 729513770 729513777#1 729513777#2 729513777#3 729513777#4 729513781#1 729513781#2 729513781#3 117083234#1 117083234#2 117083234#3 985853783 326316940#3 1267854024#0 258296028#1 258296028#2 258296027#0 240487749 240487748#0 258285695#1 317913857#0 317913857#1 1267932744"/>
    </vehicle>
    <vehicle id="38" depart="3.80">
        <route edges="47574228 47574228-AddedOffRampEdge 858280681 858280681-AddedOffRampEdge 47574516 858280664#2-AddedOnRampEdge 858280664#3 858280664#4-AddedOnRampEdge 858280664#5 858280664#5.306 858280664#7 858280664#9 858280664#10 729513771#0 729513771#1 729513771#3 -1267713756#2 210697658#0"/>
    </vehicle>
    <vehicle id="39" depart="3.90">
        <route edges="-887441691 887441691 238819090#4 238819090#5 187903266#0 27349341#0 187903226#0 187903226#1 187903226#2 187903226#3 324914964#0 240016468#0 240016468#1 240016468#3 240016468#4 240016468#6 240016468#8 240016468#9 240016468#10 858280664#9 858280664#10 729513770 -729513770"/>
    </vehicle>
    <vehicle id="40" depart="4.00">
        <route edges="240016476#0 320763328#1 238948484#4 23285396#0 23285396#1 23285396#2 23285396#4 23285396#6 29129941#1 29129941#1-AddedOffRampEdge 29129941#3 29129941#4 29129941#5 -42500632#1 1004618697#0 1041174585#0 1041174585#9 1041174585#10 58688600#0 58688600#4 47573985#1 47573985#2 47573985#4 47573985#5 47573985#6 210697512 201526544#1 210697333#0 -987587872#0"/>
    </vehicle>
    <vehicle id="41" depart="4.10">
        <route edges="240224341#2 324914962#5 324914962#7 47573981#5 47573981#6 58688528#1 58688528#2 708387269#0 708387269#1 708387269#2 1268371481 42500632#0 42500668#0 42500668#0-AddedOffRampEdge 42500668#1 42500668#1-AddedOffRampEdge 42500668#2 42500668#4 42500668#4-AddedOffRampEdge 42500668#6 42500668#7-AddedOnRampEdge 42500668#8 42500668#9-AddedOnRampEdge 42500668#10"/>
    </vehicle>
    <vehicle id="42" depart="4.20">
        <route edges="1268351277#0 1268351277#1 1236781136#0 1236781136#2 1267713760#0 1267713760#2 386424819#0 -386424819#0"/>
    </vehicle>
    <vehicle id="43" depart="4.30">
        <route edges="987587873 708388763#3 -42500620#1 -42500620#0 -42500596 -42500589#7 -42500589#6 -42500589#5 -42500589#4 -42500589#3 -42500589#0 729513782#0 729513782#1 729513782#3 729513782#4 729513782#6 729513782#8 1268371481 42500632#0 42500632#4 42500632#5 42500632#6 -241491909#4 -241491909#1 -241491909#0 241491908#0 241491908#1 241491908#2 241491908#3 -187903264#6 241491910#1 240148916#0 244552112#0 244552112#1 240016577#0 240016577#1 240016566#0 240016566#1 240016574#0 240016574#1 238304661#1 238304661#2"/>
    </vehicle>
    <vehicle id="44" depart="4.40">
        <route edges="-237178907#0 -237178901#2 -237178901#1 47574253#1 47574253#2 47574253#3 258296028#1 258296028#2 258296027#0 240487749 240487748#0 258285709#0 258285709#2 258285709#3 -1267932745#0"/>
    </vehicle>
    <vehicle id="45" depart="4.50">
        <route edges="-240224323 -27349550#12 -42500632#9 -241491909#4 -241491909#1 -241491909#0 -29129846#4 -29129846#3 47574255#1 240010952#2 234405385#1 234405385#3 240487743#0 240487742#0 240969765#3"/>
    </vehicle>
    <vehicle id="46" depart="4.60">
        <route edges="317889659#1 -1267927772 -238813256#6 -238813256#5 317889646#20 317889646#24 258285697#0 258285698#1 241509557#0 240486073#1 240486073#4 30048379#6 238938051#0 238938052#0 238938052#1 -187903264#6 1268314607#0 187903279#0"/>
    </vehicle>
    <vehicle id="47" depart="4.70">
        <route edges="-201526555#2 -201526555#0 -1268303751#0 -265527873#2 -265527873#0 -1267713755#2 -1267713755#1 -1267713756#2 -1267713756#0 1267836815#0"/>
    </vehicle>
    <vehicle id="48" depart="4.80">
        <route edges="987587871#1 210697333#1 210697333#2 210697333#3 210697333#4 210697333#5 -201526555#0 -1268303751#0 -265527873#2 -265527873#0 -1267713755#2 -1267713755#1 -267610020#3 -267610020#1 -267610020#0 324914960#0 324914960#1 324914960#2 324914960#3 238430061#0 238430061#1 238430061#3"/>
    </vehicle>
    <vehicle id="49" depart="4.90">
        <route edges="858280664#5 858280664#5.306 1239551499 338574588#0"/>
    </vehicle>
    <vehicle id="50" depart="5.00">
        <route edges="-1170347801#2 -1170347801#0 708387269#0 708387269#1 708387269#2 1041174584#1 1041174584#2 -117083239#6 -117083239#5 -117083239#4 -117083239#2 985853783 326316940#3 1267854024#0 258296028#1 258296028#2 258296027#0"/>
    </vehicle>
    <vehicle id="51" depart="5.10">
        <route edges="256265176#0 1267713756#0 1267713756#1 729513774#0 729513774#1 729513774#3 729513770 729513777#1 729513777#2 729513777#3 729513777#4 729513777#6 729513777#7 -42500589#0 729513782#0 729513782#1 729513782#3 729513782#4 -254757133#4 -254757133#0 -117083728#9 1041183869#2 238692792#1"/>
    </vehicle>
    <vehicle id="52" depart="5.20">
        <route edges="-983420976#1 238689595#3 238689595#4 238689595#5 238689595#6 239586546#0 240486076#0 240486075#0 258285707#0 1267854025 241491906#0 241491906#2 241491906#4"/>
    </vehicle>
    <vehicle id="54" depart="5.40">
        <route edges="210697658#0 -1236781136#1 -1267713755#2 -1267713755#1 729513774#0 729513774#1 729513774#3 729513770 729513777#1 729513777#2"/>
    </vehicle>
    <vehicle id="55" depart="5.50">
        <route edges="389662623#1 389662623#2 389662623#3 1268303751#1 -210697333#5 -210697333#4 -210697333#3 -210697333#2 -210697333#1 987587872#1 -987587872#1"/>
    </vehicle>
    <vehicle id="56" depart="5.60">
        <route edges="238273914#0 -238273914#0 238819090#3 238819090#4 238819090#5 187903266#0 27349341#0 187903226#0 187903226#1 187903226#2 -29130120#5 -29130120#4"/>
    </vehicle>
    <vehicle id="58" depart="5.80">
        <route edges="1085258001#2 1085258001#4 1085258000#1 254093676#4 241100372#1 240970115#0 1267924288#1 27997429#1-AddedOnRampEdge 27997429#1 238304662#1 27997430#1 240970122#0 240078024#0 240078024#3-AddedOnRampEdge 240078024#3 240078024#4 1268314612 1268309796#1 27997405#1 241441755#0 241441755#1"/>
    </vehicle>
    <vehicle id="59" depart="5.90">
        <route edges="240487751#0 -240082981#2 29129683#0 29129683#1 240635781#0 27349424#3 27349424#5 27349424#7 27349424#10 -42500632#1 1004618697#0 -729513782#8 -729513782#7 -729513782#5 -729513782#3 -729513782#1 -729513782#0 42500589#0 42500589#3 42500589#4 42500589#5 42500589#6 42500589#7 42500589#8 42500620#0 42500620#1 42500620#2 42500620#3 -42500624#3 -42500624#2 -42500624#1 -42500624#0 265527873#1 265527873#3 1268303751#1 201526555#2 -252847529#5 -252847529#4 -252847529#3 -252847529#2 252847540#0 252847540#1 -256265192"/>
    </vehicle>
    <vehicle id="60" depart="6.00">
        <route edges="29235634 47573971 317916299 317916330 240227446 117083727#0 117083731#1 117083731#3 238692793#0"/>
    </vehicle>
    <vehicle id="61" depart="6.10">
        <route edges="317889646#24 258296019#0 258296019#4 258296019#7 258296019#11 258296019#15 258296019#20 258296019#22 258296019#26 258296019#28 858280661#0 858280661#5 858280661#7-AddedOnRampEdge 858280661#9 858280661#12 317889653#6 317889653#7 238430061#5"/>
    </vehicle>
    <vehicle id="62" depart="6.20">
        <route edges="-1004618691#0 708387269#2 1041174584#1 1041174584#2 240016468#0 240016468#1 240016468#3 117083235#0 117083237#3"/>
    </vehicle>
    <vehicle id="63" depart="6.30">
        <route edges="-117083239#0 117083239#0 117083239#2 117083239#4 117083239#5 117083239#6 723005464#1 723005464#2 1041174585#0 1041174585#9 1041174585#10 58688600#0"/>
    </vehicle>
    <vehicle id="64" depart="6.40">
        <route edges="389671567#1 -389662624#0 389662623#3 -1268303751#0 -265527873#2 42500624#0 42500624#1 42500624#2 42500624#3 -42500620#3 -42500620#2 -42500620#1 -42500620#0 -42500596 -42500589#7 -42500589#6 -42500589#5 -1268351276 729513777#4 729513781#1 729513781#2 729513781#3 117083234#1 117083234#2 117083234#3 985853783 326316940#3 1267854024#0 258296028#1 258296028#2 258296027#0 240487749 240487748#0 258285709#0 258285709#2 258285709#3 258285709#4 254093681#1 254093681#1-AddedOffRampEdge 254093681#2 318508449#4"/>
    </vehicle>
    <vehicle id="66" depart="6.60">
        <route edges="389662624#1 -252762949#0 -413681302#0 -201526555#2 -201526555#0 -1268303751#0 -265527873#2 -265527873#0 -1267713755#2 -1267713755#1 729513774#0 729513774#1 729513774#3 729513770 729513766#0 729513766#1 729513766#3 729513766#4"/>
    </vehicle>
    <vehicle id="67" depart="6.70">
        <route edges="-237178901#2 -237178901#1 47574253#1 47574253#2 47574253#3 1267854025 241491906#0 234405385#1"/>
    </vehicle>
    <vehicle id="69" depart="6.90">
        <route edges="29235634 47573971 317916299 210697408 252847537#0-AddedOnRampEdge 252847537#0 252847537#0-AddedOffRampEdge 252847537#1 252847537#2-AddedOnRampEdge 252847537#2 252847537#2-AddedOffRampEdge 391813830#0 391813830#1 210697668#0 240227445#0 240227445#1 729513765 -729513770 729513771#0 729513771#1 729513771#3 -1267713756#2 -1267713756#0 -1035809878#2 -1035809878#1 -1035809878#0 -252762950#0"/>
    </vehicle>
    <vehicle id="71" depart="7.10">
        <route edges="-887441691 887441691 238819090#4 238819090#5 187903266#0 240638687#0 240638687#3 -42500632#13 -42500632#10 -42500632#9 -42500632#6 -42500632#5 -42500632#4 -42500632#1 1004618697#0 -729513782#8 -729513782#7 -729513782#5 -729513782#3 -729513782#1 -729513782#0 42500589#0 42500589#3 42500589#4 42500589#5 42500589#6 42500589#7 42500589#8 42500620#0 42500620#1 42500620#2 42500620#3 1268351277#0 1268351277#1 1236781136#0 1236781136#2 1267713760#0 1267713760#2 386424819#0 364448193#0"/>
    </vehicle>
    <vehicle id="72" depart="7.20">
        <route edges="201526554 -238304667#1 1210541175#3 240078024#0 240078024#3-AddedOnRampEdge 240078024#3 240078024#4 1268314612 1268309796#1 27997405#1 241441755#0 241441755#1 29129683#0 29129683#1 240635781#0 27349424#3 27349424#5 27349424#7 324914964#0 240016468#0 240016468#1 240016468#3 240016468#4 240016468#6 240016468#8 240016468#9 240016468#10 361964650#0 361964650#1 -338574588#1 -338574588#0"/>
    </vehicle>
    <vehicle id="73" depart="7.30">
        <route edges="238813254#1 723005459#3 117083228#4 240016468#6 240016468#8 240016468#9 240016468#10 361964650#0 361964650#1 361964650#2 361964650#3 267610020#0 267610020#1 267610020#2"/>
    </vehicle>
    <vehicle id="74" depart="7.40">
        <route edges="-317913850 318505850#0 258285696#2 258285696#5 1115416551#7 238748572#0 258296019#20 258296019#22 258296019#26 258296019#28 858280664#0 858280664#0-AddedOffRampEdge 858280664#1 858280664#2-AddedOnRampEdge 858280664#3 858280664#4-AddedOnRampEdge 210697592 317913831#1-AddedOnRampEdge 317913831#1-AddedOffRampEdge 47574009 317916312 729513769#1 729513769#2 729513769#3-AddedOnRampEdge 729513769#3 729513769#3-AddedOffRampEdge 729513769#4 729513769#5-AddedOnRampEdge 729513769#5 729513769#5-AddedOffRampEdge 479621131#0 479621131#1 317916347-AddedOnRampEdge 317916347 1135118748#1-AddedOnRampEdge"/>
    </vehicle>
    <vehicle id="75" depart="7.50">
        <route edges="987587869 256265226#1 256265226#2 256265226#3 256265226#5 256265226#6 210697333#2 708388763#2 708388763#3 -42500620#1 -42500620#0 -42500596 -42500589#7 -42500589#6 -42500589#5 -42500589#4 -42500589#3 -42500589#0 729513782#0 729513782#1 729513782#3 729513782#4 729513782#6 729513782#8 1268371481 42500632#0 42500632#4 42500632#5 42500632#6 -241491909#4 -241491909#1 -241491909#0 241491908#0 241491908#1 241491908#2 241491908#3 -187903264#6 241491910#1 240148916#0 244552112#0 244552112#1 240016577#0 240016577#1 241793315#0"/>
    </vehicle>
    <vehicle id="76" depart="7.60">
        <route edges="210697315#2 238430053#4"/>
    </vehicle>
    <vehicle id="77" depart="7.70">
        <route edges="-240517970 -235410264#2 -235410264#1 -235410264#0 1267857299 239586546#0 240486076#0 240486075#0 258285707#0 1267851956#1 1267851956#3 258285706#0 258285706#2 256266146#0 256266146#1 256266146#2 240016468#8 240016468#9 240016468#10 858280664#9 858280664#10 729513769#0 729513769#1 210697600#0 210697600#1 -210697370 210697624 42500620#3 -42500624#3 -42500624#2 -42500624#1 -42500624#0 265527873#1 265527873#3 -389662623#4"/>
    </vehicle>
    <vehicle id="78" depart="7.80">
        <route edges="117083728#7 1041183869#2 238692792#1 238692792#3 238692792#6 240224340#2 240224340#4"/>
    </vehicle>
    <vehicle id="79" depart="7.90">
        <route edges="-389662624#2 -389671567#1 -389671567#0 -364448192#2 -386424819#1"/>
    </vehicle>
    <vehicle id="80" depart="8.00">
        <route edges="-210697333#5 210697333#5 -201526555#0 -1268303751#0 -265527873#2 42500624#0 42500624#1 42500624#2 42500624#3 -42500620#3 -42500620#2 -42500620#1 -42500620#0 -42500596 -42500589#7 -42500589#6 -42500589#5 -1268351276 729513777#4 729513781#1 729513781#2 729513781#3 117083234#1 117083234#2 117083234#3 985853783 326316940#3 1267854024#0 1267854025 241491906#0 234405385#1 234405385#3 240487743#0 240487742#0 240487742#2 240970119#1 240970119#2 240970119#3 240970119#4"/>
    </vehicle>
    <vehicle id="81" depart="8.10">
        <route edges="-389662624#0 389662623#3 -1268303751#0 -265527873#2 42500624#0 42500624#1 42500624#2 42500624#3 -42500620#3 -42500620#2 -42500620#1 -42500620#0 -42500596 -42500589#7 -42500589#6 -42500589#5 -42500589#4 -42500589#3 -42500589#0 729513782#0 729513782#1 729513782#3 729513782#4 -254757133#4 -254757133#0 47573979"/>
    </vehicle>
    <vehicle id="82" depart="8.20">
        <route edges="338574609#5 338574588#1 324914966#2 314357546#3 314357546#4 314357546#6 -210697611#0"/>
    </vehicle>
    <vehicle id="83" depart="8.30">
        <route edges="-42500632#10 -42500632#9 -42500632#6 -42500632#5 -42500632#4 -42500632#1 1004618697#0 -729513782#8 -729513782#7 -729513782#5 -729513782#3 -729513782#1 -729513782#0 42500589#0 42500589#3 42500589#4 42500589#5 42500589#6 42500589#7 42500589#8 42500620#0 42500620#1 42500620#2 42500620#3 1268351277#0 1268351277#1 1236781136#0 1236781136#2 1267713760#0 1267713760#2 1267713760#3 1267713758 -252762950#6 252762950#5"/>
    </vehicle>
    <vehicle id="84" depart="8.40">
        <route edges="-338573515#5 317913855#1 317913855#2 317913844#3 317913844#4 317913844#6 210697315#5 238430058 338573504 858280664#4-AddedOnRampEdge 210697592 317913831#1-AddedOnRampEdge 317913831#1-AddedOffRampEdge 47574009 317916312 729513769#1 210697600#0 210697600#1 -210697370 210697624 42500620#3 -42500624#3 -42500624#2 -42500624#1 -42500624#0 265527873#1 265527873#3 1268303751#1 201526555#2 201526555#4 201526555#5 -252762971"/>
    </vehicle>
    <vehicle id="85" depart="8.50">
        <route edges="708387270 256265225#0 256265225#1 256265225#2 256265225#3 -42500589#0 238813254#0 -238813252#1 729513781#2 729513781#3 117083234#1 117083234#2 117083234#3 985853783 326316940#3 1267854024#0 1267854025 241491906#0 234405385#1 234405385#3 240487743#0 240487742#0 240487742#2 240970119#1 240970119#2 240970119#3 240970119#4 240077505#0"/>
    </vehicle>
    <vehicle id="86" depart="8.60">
        <route edges="23272311#9 242820807#0 242820807#1 242820807#2 258296019#4 258296019#7 258296019#11 258296019#15 258296019#20 258296019#22 317889646#4"/>
    </vehicle>
    <vehicle id="87" depart="8.70">
        <route edges="317913855#1 317913855#2 317913844#3 317913844#4 317913844#6 238430053#3 -317889652#9"/>
    </vehicle>
    <vehicle id="89" depart="8.90">